
  SciTegic09261414532D

 30 33  0  0  0  0            999 V2000
   14.7686   -4.6646    0.0000 O   0  0
   14.0680   -5.0483    0.0000 C   0  0  1  0  0  0
   13.3824   -4.6315    0.0000 C   0  0
   13.4062   -3.8309    0.0000 C   0  0
   12.7215   -3.4142    0.0000 C   0  0
   12.0199   -3.7979    0.0000 C   0  0
   12.0034   -4.6027    0.0000 C   0  0
   12.6888   -5.0156    0.0000 C   0  0
   14.1121   -3.4494    0.0000 C   0  0
   11.3001   -4.9889    0.0000 F   0  0
   17.5614   -3.9250    0.0000 C   0  0
   15.4358   -5.0806    0.0000 C   0  0
   16.8432   -5.1150    0.0000 C   0  0
   15.4360   -5.8835    0.0000 C   0  0
   16.1608   -4.6977    0.0000 N   0  0
   16.8240   -5.9166    0.0000 C   0  0
   16.1225   -6.3008    0.0000 N   0  0
   14.7303   -6.2677    0.0000 N   0  0
   17.5464   -4.7308    0.0000 C   0  0
   18.3009   -4.9921    0.0000 C   0  0
   18.7874   -4.3544    0.0000 N   0  0
   18.3302   -3.6997    0.0000 N   0  0
   18.5325   -5.7572    0.0000 O   0  0
   13.6611   -5.7410    0.0000 C   0  0
   14.8081   -3.8777    0.0000 O   0  0
   14.1351   -2.6325    0.0000 N   0  0
   14.8540   -2.2440    0.0000 C   0  0
   13.4392   -2.2042    0.0000 C   0  0
   18.6013   -2.9288    0.0000 C   0  0
   19.3283   -5.9432    0.0000 C   0  0
 12  1  1  0
  1  2  1  0
  2  3  1  0
  3  4  2  0
  4  5  1  0
  5  6  2  0
  6  7  1  0
  7  8  2  0
  8  3  1  0
  4  9  1  0
  7 10  1  0
 14 12  1  0
 12 15  2  0
 15 13  1  0
 13 16  2  0
 16 17  1  0
 14 17  2  0
 14 18  1  0
 13 19  1  0
 11 19  2  0
 19 20  1  0
 20 21  2  0
 21 22  1  0
 22 11  1  0
 20 23  1  0
  2 24  1  6
  9 25  2  0
  9 26  1  0
 26 27  1  0
 26 28  1  0
 27 11  1  0
 22 29  1  0
 23 30  1  0
M  END
> <From>
www.bindingDB.org

> <BindingDB Reactant_set_id>
50103698

> <Ligand InChI>
InChI=1S/C20H21FN6O3/c1-10-13-7-11(21)5-6-12(13)20(28)26(2)9-15-16(18(29-4)25-27(15)3)14-8-23-17(22)19(24-14)30-10/h5-8,10H,9H2,1-4H3,(H2,22,23)/t10-/m1/s1

> <Ligand InChI Key>
ONGPJRHQODCQNJ-SNVBAGLBSA-N

> <BindingDB MonomerID>
50018836

> <BindingDB Ligand Name>
CHEMBL3286826

> <Target Name>
ALK tyrosine kinase receptor

> <Target Source Organism According to Curator or DataSource>
Homo sapiens

> <Ki (nM)>


> <IC50 (nM)>
 0.110000

> <Kd (nM)>


> <EC50 (nM)>


> <kon (M-1-s-1)>


> <koff (s-1)>


> <pH>


> <Temp C>


> <Curation/DataSource>
ChEMBL

> <Article DOI>
10.1021/jm500261q

> <BindingDB Entry DOI>
10.7270/Q2K35W68

> <PMID>
24819116

> <PubChem AID>


> <Patent Number>


> <Authors>
Johnson, TW; Richardson, PF; Bailey, S; Brooun, A; Burke, BJ; Collins, MR; Cui, JJ; Deal, JG; Deng, YL; Dinh, D; Engstrom, LD; He, M; Hoffman, J; Hoffman, RL; Huang, Q; Kania, RS; Kath, JC; Lam, H; Lam, JL; Le, PT; Lingardo, L; Liu, W; McTigue, M; Palmer, CL; Sach, NW; Smeal, T; Smith, GL; Stewart, AE; Timofeevski, S; Zhu, H; Zhu, J; Zou, HY; Edwards, MP

> <Date of publication>
6/12/2014

> <Date in BindingDB>
2/11/2015

> <Institution>
Pfizer Inc

> <Link to Ligand in BindingDB>
http://www.bindingdb.org/bind/chemsearch/marvin/MolStructure.jsp?monomerid=50018836

> <Link to Ligand-Target Pair in BindingDB>
http://www.bindingdb.org/jsp/dbsearch/PrimarySearch_ki.jsp?energyterm=kJ/mole&tag=pol&polymerid=5809&target=ALK+tyrosine+kinase+receptor&column=ki&startPg=0&Increment=50&submit=Search

> <Link to Ligand-Target Pair in BindingDB>
http://www.bindingdb.org/jsp/dbsearch/PrimarySearch_ki.jsp?energyterm=kJ/mole&tag=r21&monomerid=50018836&enzyme=ALK+tyrosine+kinase+receptor&column=ki&startPg=0&Increment=50&submit=Search

> <Ligand HET ID in PDB>


> <PDB ID(s) for Ligand-Target Complex>


> <PubChem CID of Ligand>
90644201

> <PubChem SID of Ligand>
103929889

> <ChEBI ID of Ligand>


> <ChEMBL ID of Ligand>
CHEMBL3286826

> <DrugBank ID of Ligand>


> <IUPHAR_GRAC ID of Ligand>


> <KEGG ID of Ligand>


> <ZINC ID of Ligand>
ZINC33891505

> <Number of Protein Chains in Target (bigger than 1 implies a multichain complex)>
1

> <BindingDB Target Chain Sequence>
MGAIGLLWLLPLLLSTAAVGSGMGTGQRAGSPAAGPPLQPREPLSYSRLQRKSLAVDFVVPSLFRVYARDLLLPPSSSELKAGRPEARGSLALDCAPLLRLLGPAPGVSWTAGSPAPAEARTLSRVLKGGSVRKLRRAKQLVLELGEEAILEGCVGPPGEAAVGLLQFNLSELFSWWIRQGEGRLRIRLMPEKKASEVGREGRLSAAIRASQPRLLFQIFGTGHSSLESPTNMPSPSPDYFTWNLTWIMKDSFPFLSHRSRYGLECSFDFPCELEYSPPLHDLRNQSWSWRRIPSEEASQMDLLDGPGAERSKEMPRGSFLLLNTSADSKHTILSPWMRSSSEHCTLAVSVHRHLQPSGRYIAQLLPHNEAAREILLMPTPGKHGWTVLQGRIGRPDNPFRVALEYISSGNRSLSAVDFFALKNCSEGTSPGSKMALQSSFTCWNGTVLQLGQACDFHQDCAQGEDESQMCRKLPVGFYCNFEDGFCGWTQGTLSPHTPQWQVRTLKDARFQDHQDHALLLSTTDVPASESATVTSATFPAPIKSSPCELRMSWLIRGVLRGNVSLVLVENKTGKEQGRMVWHVAAYEGLSLWQWMVLPLLDVSDRFWLQMVAWWGQGSRAIVAFDNISISLDCYLTISGEDKILQNTAPKSRNLFERNPNKELKPGENSPRQTPIFDPTVHWLFTTCGASGPHGPTQAQCNNAYQNSNLSVEVGSEGPLKGIQIWKVPATDTYSISGYGAAGGKGGKNTMMRSHGVSVLGIFNLEKDDMLYILVGQQGEDACPSTNQLIQKVCIGENNVIEEEIRVNRSVHEWAGGGGGGGGATYVFKMKDGVPVPLIIAAGGGGRAYGAKTDTFHPERLENNSSVLGLNGNSGAAGGGGGWNDNTSLLWAGKSLQEGATGGHSCPQAMKKWGWETRGGFGGGGGGCSSGGGGGGYIGGNAASNNDPEMDGEDGVSFISPLGILYTPALKVMEGHGEVNIKHYLNCSHCEVDECHMDPESHKVICFCDHGTVLAEDGVSCIVSPTPEPHLPLSLILSVVTSALVAALVLAFSGIMIVYRRKHQELQAMQMELQSPEYKLSKLRTSTIMTDYNPNYCFAGKTSSISDLKEVPRKNITLIRGLGHGAFGEVYEGQVSGMPNDPSPLQVAVKTLPEVCSEQDELDFLMEALIISKFNHQNIVRCIGVSLQSLPRFILLELMAGGDLKSFLRETRPRPSQPSSLAMLDLLHVARDIACGCQYLEENHFIHRDIAARNCLLTCPGPGRVAKIGDFGMARDIYRASYYRKGGCAMLPVKWMPPEAFMEGIFTSKTDTWSFGVLLWEIFSLGYMPYPSKSNQEVLEFVTSGGRMDPPKNCPGPVYRIMTQCWQHQPEDRPNFAIILERIEYCTQDPDVINTALPIEYGPLVEEEEKVPVRPKDPEGVPPLLVSQQAKREEERSPAAPPPLPTTSSGKAAKKPTAAEISVRVPRGPAVEGGHVNMAFSQSNPPSELHKVHGSRNKPTSLWNPTYGSWFTEKPTKKNNPIAKKEPHDRGNLGLEGSCTVPPNVATGRLPGASLLLEPSSLTANMKEVPLFRLRHFPCGNVNYGYQQQGLPLEAATAPGAGHYEDTILKSKNSMNQPGP

> <PDB ID(s) of Target Chain>
2XB7,2XBA,3AOX,5FTO,5FTQ,6E0R,6EBW,6EDL,6MX8,7JY4,7JYR,7JYS,7JYT,7LS0,7MZW,7MZY,7N00,7NX3,7NX4,8ARJ

> <UniProt (SwissProt) Recommended Name of Target Chain>
ALK tyrosine kinase receptor

> <UniProt (SwissProt) Entry Name of Target Chain>
ALK_HUMAN

> <UniProt (SwissProt) Primary ID of Target Chain>
Q9UM73

> <UniProt (SwissProt) Secondary ID(s) of Target Chain>
A6P4T4 A6P4V4 Q4ZFX9 Q53QQ6 Q53RZ4 Q59FI3 Q9Y4K6

> <UniProt (SwissProt) Alternative ID(s) of Target Chain>


> <UniProt (TrEMBL) Submitted Name of Target Chain>


> <UniProt (TrEMBL) Entry Name of Target Chain>


> <UniProt (TrEMBL) Primary ID of Target Chain>


> <UniProt (TrEMBL) Secondary ID(s) of Target Chain>


> <UniProt (TrEMBL) Alternative ID(s) of Target Chain>


$$$$

  SciTegic09261414532D

 30 33  0  0  0  0            999 V2000
    4.9144   -4.1325    0.0000 O   0  0
    4.1936   -4.5272    0.0000 C   0  0  1  0  0  0
    3.4882   -4.0984    0.0000 C   0  0
    3.5127   -3.2747    0.0000 C   0  0
    2.8082   -2.8460    0.0000 C   0  0
    2.0864   -3.2408    0.0000 C   0  0
    2.0694   -4.0688    0.0000 C   0  0
    2.7746   -4.4937    0.0000 C   0  0
    4.2390   -2.8822    0.0000 C   0  0
    1.3458   -4.4661    0.0000 F   0  0
    7.7877   -3.3715    0.0000 C   0  0
    5.6008   -4.5605    0.0000 C   0  0
    7.0487   -4.5960    0.0000 C   0  0
    5.6010   -5.3865    0.0000 C   0  0
    6.3467   -4.1665    0.0000 C   0  0
    7.0291   -5.4206    0.0000 C   0  0
    6.3074   -5.8159    0.0000 N   0  0
    4.8750   -5.7818    0.0000 N   0  0
    7.7722   -4.2006    0.0000 C   0  0
    8.5486   -4.4694    0.0000 C   0  0
    9.0491   -3.8134    0.0000 N   0  0
    8.5787   -3.1397    0.0000 N   0  0
    8.7869   -5.2566    0.0000 O   0  0
    4.9549   -3.3229    0.0000 O   0  0
    4.2626   -2.0417    0.0000 N   0  0
    5.0023   -1.6420    0.0000 C   0  0
    3.5466   -1.6011    0.0000 C   0  0
    8.8577   -2.3466    0.0000 C   0  0
    3.7665   -5.2527    0.0000 C   0  0
    8.2119   -5.8700    0.0000 C   0  0
 12  1  1  0
  1  2  1  0
  2  3  1  0
  3  4  2  0
  4  5  1  0
  5  6  2  0
  6  7  1  0
  7  8  2  0
  8  3  1  0
  4  9  1  0
  7 10  1  0
 14 12  1  0
 12 15  2  0
 15 13  1  0
 13 16  2  0
 16 17  1  0
 14 17  2  0
 14 18  1  0
 13 19  1  0
 11 19  2  0
 19 20  1  0
 20 21  2  0
 21 22  1  0
 22 11  1  0
 20 23  1  0
  9 24  2  0
  9 25  1  0
 25 26  1  0
 25 27  1  0
 26 11  1  0
 22 28  1  0
  2 29  1  6
 23 30  1  0
M  END
> <From>
www.bindingDB.org

> <BindingDB Reactant_set_id>
50103697

> <Ligand InChI>
InChI=1S/C21H22FN5O3/c1-11-15-8-13(22)5-6-14(15)21(28)26(2)10-16-18(20(29-4)25-27(16)3)12-7-17(30-11)19(23)24-9-12/h5-9,11H,10H2,1-4H3,(H2,23,24)/t11-/m1/s1

> <Ligand InChI Key>
WIMIQKULKCAFMS-LLVKDONJSA-N

> <BindingDB MonomerID>
50018835

> <BindingDB Ligand Name>
CHEMBL3286825

> <Target Name>
ALK tyrosine kinase receptor

> <Target Source Organism According to Curator or DataSource>
Homo sapiens

> <Ki (nM)>


> <IC50 (nM)>
 0.180000

> <Kd (nM)>


> <EC50 (nM)>


> <kon (M-1-s-1)>


> <koff (s-1)>


> <pH>


> <Temp C>


> <Curation/DataSource>
ChEMBL

> <Article DOI>
10.1021/jm500261q

> <BindingDB Entry DOI>
10.7270/Q2K35W68

> <PMID>
24819116

> <PubChem AID>


> <Patent Number>


> <Authors>
Johnson, TW; Richardson, PF; Bailey, S; Brooun, A; Burke, BJ; Collins, MR; Cui, JJ; Deal, JG; Deng, YL; Dinh, D; Engstrom, LD; He, M; Hoffman, J; Hoffman, RL; Huang, Q; Kania, RS; Kath, JC; Lam, H; Lam, JL; Le, PT; Lingardo, L; Liu, W; McTigue, M; Palmer, CL; Sach, NW; Smeal, T; Smith, GL; Stewart, AE; Timofeevski, S; Zhu, H; Zhu, J; Zou, HY; Edwards, MP

> <Date of publication>
6/12/2014

> <Date in BindingDB>
2/11/2015

> <Institution>
Pfizer Inc

> <Link to Ligand in BindingDB>
http://www.bindingdb.org/bind/chemsearch/marvin/MolStructure.jsp?monomerid=50018835

> <Link to Ligand-Target Pair in BindingDB>
http://www.bindingdb.org/jsp/dbsearch/PrimarySearch_ki.jsp?energyterm=kJ/mole&tag=pol&polymerid=5809&target=ALK+tyrosine+kinase+receptor&column=ki&startPg=0&Increment=50&submit=Search

> <Link to Ligand-Target Pair in BindingDB>
http://www.bindingdb.org/jsp/dbsearch/PrimarySearch_ki.jsp?energyterm=kJ/mole&tag=r21&monomerid=50018835&enzyme=ALK+tyrosine+kinase+receptor&column=ki&startPg=0&Increment=50&submit=Search

> <Ligand HET ID in PDB>


> <PDB ID(s) for Ligand-Target Complex>


> <PubChem CID of Ligand>
89807790

> <PubChem SID of Ligand>
103929888

> <ChEBI ID of Ligand>


> <ChEMBL ID of Ligand>
CHEMBL3286825

> <DrugBank ID of Ligand>


> <IUPHAR_GRAC ID of Ligand>


> <KEGG ID of Ligand>


> <ZINC ID of Ligand>
ZINC36080055

> <Number of Protein Chains in Target (bigger than 1 implies a multichain complex)>
1

> <BindingDB Target Chain Sequence>
MGAIGLLWLLPLLLSTAAVGSGMGTGQRAGSPAAGPPLQPREPLSYSRLQRKSLAVDFVVPSLFRVYARDLLLPPSSSELKAGRPEARGSLALDCAPLLRLLGPAPGVSWTAGSPAPAEARTLSRVLKGGSVRKLRRAKQLVLELGEEAILEGCVGPPGEAAVGLLQFNLSELFSWWIRQGEGRLRIRLMPEKKASEVGREGRLSAAIRASQPRLLFQIFGTGHSSLESPTNMPSPSPDYFTWNLTWIMKDSFPFLSHRSRYGLECSFDFPCELEYSPPLHDLRNQSWSWRRIPSEEASQMDLLDGPGAERSKEMPRGSFLLLNTSADSKHTILSPWMRSSSEHCTLAVSVHRHLQPSGRYIAQLLPHNEAAREILLMPTPGKHGWTVLQGRIGRPDNPFRVALEYISSGNRSLSAVDFFALKNCSEGTSPGSKMALQSSFTCWNGTVLQLGQACDFHQDCAQGEDESQMCRKLPVGFYCNFEDGFCGWTQGTLSPHTPQWQVRTLKDARFQDHQDHALLLSTTDVPASESATVTSATFPAPIKSSPCELRMSWLIRGVLRGNVSLVLVENKTGKEQGRMVWHVAAYEGLSLWQWMVLPLLDVSDRFWLQMVAWWGQGSRAIVAFDNISISLDCYLTISGEDKILQNTAPKSRNLFERNPNKELKPGENSPRQTPIFDPTVHWLFTTCGASGPHGPTQAQCNNAYQNSNLSVEVGSEGPLKGIQIWKVPATDTYSISGYGAAGGKGGKNTMMRSHGVSVLGIFNLEKDDMLYILVGQQGEDACPSTNQLIQKVCIGENNVIEEEIRVNRSVHEWAGGGGGGGGATYVFKMKDGVPVPLIIAAGGGGRAYGAKTDTFHPERLENNSSVLGLNGNSGAAGGGGGWNDNTSLLWAGKSLQEGATGGHSCPQAMKKWGWETRGGFGGGGGGCSSGGGGGGYIGGNAASNNDPEMDGEDGVSFISPLGILYTPALKVMEGHGEVNIKHYLNCSHCEVDECHMDPESHKVICFCDHGTVLAEDGVSCIVSPTPEPHLPLSLILSVVTSALVAALVLAFSGIMIVYRRKHQELQAMQMELQSPEYKLSKLRTSTIMTDYNPNYCFAGKTSSISDLKEVPRKNITLIRGLGHGAFGEVYEGQVSGMPNDPSPLQVAVKTLPEVCSEQDELDFLMEALIISKFNHQNIVRCIGVSLQSLPRFILLELMAGGDLKSFLRETRPRPSQPSSLAMLDLLHVARDIACGCQYLEENHFIHRDIAARNCLLTCPGPGRVAKIGDFGMARDIYRASYYRKGGCAMLPVKWMPPEAFMEGIFTSKTDTWSFGVLLWEIFSLGYMPYPSKSNQEVLEFVTSGGRMDPPKNCPGPVYRIMTQCWQHQPEDRPNFAIILERIEYCTQDPDVINTALPIEYGPLVEEEEKVPVRPKDPEGVPPLLVSQQAKREEERSPAAPPPLPTTSSGKAAKKPTAAEISVRVPRGPAVEGGHVNMAFSQSNPPSELHKVHGSRNKPTSLWNPTYGSWFTEKPTKKNNPIAKKEPHDRGNLGLEGSCTVPPNVATGRLPGASLLLEPSSLTANMKEVPLFRLRHFPCGNVNYGYQQQGLPLEAATAPGAGHYEDTILKSKNSMNQPGP

> <PDB ID(s) of Target Chain>
2XB7,2XBA,3AOX,5FTO,5FTQ,6E0R,6EBW,6EDL,6MX8,7JY4,7JYR,7JYS,7JYT,7LS0,7MZW,7MZY,7N00,7NX3,7NX4,8ARJ

> <UniProt (SwissProt) Recommended Name of Target Chain>
ALK tyrosine kinase receptor

> <UniProt (SwissProt) Entry Name of Target Chain>
ALK_HUMAN

> <UniProt (SwissProt) Primary ID of Target Chain>
Q9UM73

> <UniProt (SwissProt) Secondary ID(s) of Target Chain>
A6P4T4 A6P4V4 Q4ZFX9 Q53QQ6 Q53RZ4 Q59FI3 Q9Y4K6

> <UniProt (SwissProt) Alternative ID(s) of Target Chain>


> <UniProt (TrEMBL) Submitted Name of Target Chain>


> <UniProt (TrEMBL) Entry Name of Target Chain>


> <UniProt (TrEMBL) Primary ID of Target Chain>


> <UniProt (TrEMBL) Secondary ID(s) of Target Chain>


> <UniProt (TrEMBL) Alternative ID(s) of Target Chain>


$$$$

  SciTegic09261414532D

 30 33  0  0  0  0            999 V2000
   15.5386   -5.1488    0.0000 O   0  0
   14.8183   -5.5433    0.0000 C   0  0  1  0  0  0
   14.1133   -5.1148    0.0000 C   0  0
   14.1378   -4.2915    0.0000 C   0  0
   13.4336   -3.8630    0.0000 C   0  0
   12.7123   -4.2576    0.0000 C   0  0
   12.6952   -5.0851    0.0000 C   0  0
   13.4001   -5.5098    0.0000 C   0  0
   14.8637   -3.8992    0.0000 C   0  0
   11.9721   -5.4822    0.0000 F   0  0
   18.4105   -4.3883    0.0000 C   0  0
   16.2248   -5.5766    0.0000 C   0  0
   17.6719   -5.6120    0.0000 C   0  0
   16.2249   -6.4022    0.0000 C   0  0
   16.9702   -5.1828    0.0000 C   0  0
   17.6523   -6.4363    0.0000 C   0  0
   16.9309   -6.8314    0.0000 N   0  0
   15.4994   -6.7973    0.0000 N   0  0
   18.3950   -5.2168    0.0000 C   0  0
   19.1710   -5.4856    0.0000 C   0  0
   19.6711   -4.8299    0.0000 N   0  0
   19.2011   -4.1567    0.0000 N   0  0
   14.3999   -6.2556    0.0000 C   0  0
   15.5793   -4.3397    0.0000 O   0  0
   14.8873   -3.0593    0.0000 N   0  0
   15.6266   -2.6597    0.0000 C   0  0
   14.1716   -2.6188    0.0000 C   0  0
   20.5114   -4.8476    0.0000 C   0  0
   19.4137   -6.2884    0.0000 C   0  0
   19.6562   -7.0930    0.0000 N   0  0
 12  1  1  0
  1  2  1  0
  2  3  1  0
  3  4  2  0
  4  5  1  0
  5  6  2  0
  6  7  1  0
  7  8  2  0
  8  3  1  0
  4  9  1  0
  7 10  1  0
 14 12  1  0
 12 15  2  0
 15 13  1  0
 13 16  2  0
 16 17  1  0
 14 17  2  0
 14 18  1  0
 13 19  1  0
 11 19  1  0
 19 20  2  0
 20 21  1  0
 21 22  1  0
 22 11  2  0
  2 23  1  6
  9 24  2  0
  9 25  1  0
 25 26  1  0
 25 27  1  0
 26 11  1  0
 21 28  1  0
 29 30  3  0
 20 29  1  0
M  END
> <From>
www.bindingDB.org

> <BindingDB Reactant_set_id>
50103611

> <Ligand InChI>
InChI=1S/C21H19FN6O2/c1-11-15-7-13(22)4-5-14(15)21(29)27(2)10-16-19(17(8-23)28(3)26-16)12-6-18(30-11)20(24)25-9-12/h4-7,9,11H,10H2,1-3H3,(H2,24,25)/t11-/m1/s1

> <Ligand InChI Key>
IIXWYSCJSQVBQM-LLVKDONJSA-N

> <BindingDB MonomerID>
50018830

> <BindingDB Ligand Name>
CHEMBL3286830::US10543199, Compound PF-06463922::US10780082, Compound PF-06463922::US11517561, Compound PF-06463922

> <Target Name>
ALK tyrosine kinase receptor

> <Target Source Organism According to Curator or DataSource>
Homo sapiens

> <Ki (nM)>


> <IC50 (nM)>
 0.200000

> <Kd (nM)>


> <EC50 (nM)>


> <kon (M-1-s-1)>


> <koff (s-1)>


> <pH>


> <Temp C>


> <Curation/DataSource>
ChEMBL

> <Article DOI>
10.1021/jm500261q

> <BindingDB Entry DOI>
10.7270/Q2K35W68

> <PMID>
24819116

> <PubChem AID>


> <Patent Number>


> <Authors>
Johnson, TW; Richardson, PF; Bailey, S; Brooun, A; Burke, BJ; Collins, MR; Cui, JJ; Deal, JG; Deng, YL; Dinh, D; Engstrom, LD; He, M; Hoffman, J; Hoffman, RL; Huang, Q; Kania, RS; Kath, JC; Lam, H; Lam, JL; Le, PT; Lingardo, L; Liu, W; McTigue, M; Palmer, CL; Sach, NW; Smeal, T; Smith, GL; Stewart, AE; Timofeevski, S; Zhu, H; Zhu, J; Zou, HY; Edwards, MP

> <Date of publication>
6/12/2014

> <Date in BindingDB>
2/11/2015

> <Institution>
Pfizer Inc

> <Link to Ligand in BindingDB>
http://www.bindingdb.org/bind/chemsearch/marvin/MolStructure.jsp?monomerid=50018830

> <Link to Ligand-Target Pair in BindingDB>
http://www.bindingdb.org/jsp/dbsearch/PrimarySearch_ki.jsp?energyterm=kJ/mole&tag=pol&polymerid=5809&target=ALK+tyrosine+kinase+receptor&column=ki&startPg=0&Increment=50&submit=Search

> <Link to Ligand-Target Pair in BindingDB>
http://www.bindingdb.org/jsp/dbsearch/PrimarySearch_ki.jsp?energyterm=kJ/mole&tag=r21&monomerid=50018830&enzyme=ALK+tyrosine+kinase+receptor&column=ki&startPg=0&Increment=50&submit=Search

> <Ligand HET ID in PDB>
53P

> <PDB ID(s) for Ligand-Target Complex>


> <PubChem CID of Ligand>
71731823

> <PubChem SID of Ligand>
103929883

> <ChEBI ID of Ligand>


> <ChEMBL ID of Ligand>
CHEMBL3286830

> <DrugBank ID of Ligand>


> <IUPHAR_GRAC ID of Ligand>


> <KEGG ID of Ligand>


> <ZINC ID of Ligand>
ZINC33891516

> <Number of Protein Chains in Target (bigger than 1 implies a multichain complex)>
1

> <BindingDB Target Chain Sequence>
MGAIGLLWLLPLLLSTAAVGSGMGTGQRAGSPAAGPPLQPREPLSYSRLQRKSLAVDFVVPSLFRVYARDLLLPPSSSELKAGRPEARGSLALDCAPLLRLLGPAPGVSWTAGSPAPAEARTLSRVLKGGSVRKLRRAKQLVLELGEEAILEGCVGPPGEAAVGLLQFNLSELFSWWIRQGEGRLRIRLMPEKKASEVGREGRLSAAIRASQPRLLFQIFGTGHSSLESPTNMPSPSPDYFTWNLTWIMKDSFPFLSHRSRYGLECSFDFPCELEYSPPLHDLRNQSWSWRRIPSEEASQMDLLDGPGAERSKEMPRGSFLLLNTSADSKHTILSPWMRSSSEHCTLAVSVHRHLQPSGRYIAQLLPHNEAAREILLMPTPGKHGWTVLQGRIGRPDNPFRVALEYISSGNRSLSAVDFFALKNCSEGTSPGSKMALQSSFTCWNGTVLQLGQACDFHQDCAQGEDESQMCRKLPVGFYCNFEDGFCGWTQGTLSPHTPQWQVRTLKDARFQDHQDHALLLSTTDVPASESATVTSATFPAPIKSSPCELRMSWLIRGVLRGNVSLVLVENKTGKEQGRMVWHVAAYEGLSLWQWMVLPLLDVSDRFWLQMVAWWGQGSRAIVAFDNISISLDCYLTISGEDKILQNTAPKSRNLFERNPNKELKPGENSPRQTPIFDPTVHWLFTTCGASGPHGPTQAQCNNAYQNSNLSVEVGSEGPLKGIQIWKVPATDTYSISGYGAAGGKGGKNTMMRSHGVSVLGIFNLEKDDMLYILVGQQGEDACPSTNQLIQKVCIGENNVIEEEIRVNRSVHEWAGGGGGGGGATYVFKMKDGVPVPLIIAAGGGGRAYGAKTDTFHPERLENNSSVLGLNGNSGAAGGGGGWNDNTSLLWAGKSLQEGATGGHSCPQAMKKWGWETRGGFGGGGGGCSSGGGGGGYIGGNAASNNDPEMDGEDGVSFISPLGILYTPALKVMEGHGEVNIKHYLNCSHCEVDECHMDPESHKVICFCDHGTVLAEDGVSCIVSPTPEPHLPLSLILSVVTSALVAALVLAFSGIMIVYRRKHQELQAMQMELQSPEYKLSKLRTSTIMTDYNPNYCFAGKTSSISDLKEVPRKNITLIRGLGHGAFGEVYEGQVSGMPNDPSPLQVAVKTLPEVCSEQDELDFLMEALIISKFNHQNIVRCIGVSLQSLPRFILLELMAGGDLKSFLRETRPRPSQPSSLAMLDLLHVARDIACGCQYLEENHFIHRDIAARNCLLTCPGPGRVAKIGDFGMARDIYRASYYRKGGCAMLPVKWMPPEAFMEGIFTSKTDTWSFGVLLWEIFSLGYMPYPSKSNQEVLEFVTSGGRMDPPKNCPGPVYRIMTQCWQHQPEDRPNFAIILERIEYCTQDPDVINTALPIEYGPLVEEEEKVPVRPKDPEGVPPLLVSQQAKREEERSPAAPPPLPTTSSGKAAKKPTAAEISVRVPRGPAVEGGHVNMAFSQSNPPSELHKVHGSRNKPTSLWNPTYGSWFTEKPTKKNNPIAKKEPHDRGNLGLEGSCTVPPNVATGRLPGASLLLEPSSLTANMKEVPLFRLRHFPCGNVNYGYQQQGLPLEAATAPGAGHYEDTILKSKNSMNQPGP

> <PDB ID(s) of Target Chain>
2XB7,2XBA,3AOX,5FTO,5FTQ,6E0R,6EBW,6EDL,6MX8,7JY4,7JYR,7JYS,7JYT,7LS0,7MZW,7MZY,7N00,7NX3,7NX4,8ARJ

> <UniProt (SwissProt) Recommended Name of Target Chain>
ALK tyrosine kinase receptor

> <UniProt (SwissProt) Entry Name of Target Chain>
ALK_HUMAN

> <UniProt (SwissProt) Primary ID of Target Chain>
Q9UM73

> <UniProt (SwissProt) Secondary ID(s) of Target Chain>
A6P4T4 A6P4V4 Q4ZFX9 Q53QQ6 Q53RZ4 Q59FI3 Q9Y4K6

> <UniProt (SwissProt) Alternative ID(s) of Target Chain>


> <UniProt (TrEMBL) Submitted Name of Target Chain>


> <UniProt (TrEMBL) Entry Name of Target Chain>


> <UniProt (TrEMBL) Primary ID of Target Chain>


> <UniProt (TrEMBL) Secondary ID(s) of Target Chain>


> <UniProt (TrEMBL) Alternative ID(s) of Target Chain>


$$$$

  SciTegic09261414532D

 29 32  0  0  0  0            999 V2000
    4.9153   -4.1332    0.0000 O   0  0
    4.1943   -4.5280    0.0000 C   0  0  1  0  0  0
    3.4888   -4.0991    0.0000 C   0  0
    3.5133   -3.2753    0.0000 C   0  0
    2.8087   -2.8465    0.0000 C   0  0
    2.0868   -3.2413    0.0000 C   0  0
    2.0698   -4.0695    0.0000 C   0  0
    2.7751   -4.4945    0.0000 C   0  0
    4.2397   -2.8827    0.0000 C   0  0
    1.3461   -4.4669    0.0000 F   0  0
    7.7890   -3.3721    0.0000 C   0  0
    5.6018   -4.5613    0.0000 C   0  0
    7.0500   -4.5968    0.0000 C   0  0
    5.6020   -5.3875    0.0000 C   0  0
    6.3478   -4.1673    0.0000 N   0  0
    7.0303   -5.4215    0.0000 C   0  0
    6.3085   -5.8169    0.0000 N   0  0
    4.8758   -5.7828    0.0000 N   0  0
    7.7736   -4.2013    0.0000 C   0  0
    8.5501   -4.4702    0.0000 C   0  0
    9.0507   -3.8141    0.0000 N   0  0
    8.5802   -3.1403    0.0000 N   0  0
    8.7884   -5.2575    0.0000 C   0  0
    4.9558   -3.3235    0.0000 O   0  0
    4.2634   -2.0421    0.0000 N   0  0
    5.0031   -1.6423    0.0000 C   0  0
    3.5473   -1.6014    0.0000 C   0  0
    8.8592   -2.3470    0.0000 C   0  0
    3.7672   -5.2536    0.0000 C   0  0
 12  1  1  0
  1  2  1  0
  2  3  1  0
  3  4  2  0
  4  5  1  0
  5  6  2  0
  6  7  1  0
  7  8  2  0
  8  3  1  0
  4  9  1  0
  7 10  1  0
 14 12  1  0
 12 15  2  0
 15 13  1  0
 13 16  2  0
 16 17  1  0
 14 17  2  0
 14 18  1  0
 13 19  1  0
 11 19  2  0
 19 20  1  0
 20 21  2  0
 21 22  1  0
 22 11  1  0
 20 23  1  0
  9 24  2  0
  9 25  1  0
 25 26  1  0
 25 27  1  0
 26 11  1  0
 22 28  1  0
  2 29  1  6
M  END
> <From>
www.bindingDB.org

> <BindingDB Reactant_set_id>
50103695

> <Ligand InChI>
InChI=1S/C20H21FN6O2/c1-10-17-15-8-23-18(22)19(24-15)29-11(2)14-7-12(21)5-6-13(14)20(28)26(3)9-16(17)27(4)25-10/h5-8,11H,9H2,1-4H3,(H2,22,23)/t11-/m1/s1

> <Ligand InChI Key>
BOSKQVUEUWJLFT-LLVKDONJSA-N

> <BindingDB MonomerID>
50018833

> <BindingDB Ligand Name>
CHEMBL3286823

> <Target Name>
ALK tyrosine kinase receptor

> <Target Source Organism According to Curator or DataSource>
Homo sapiens

> <Ki (nM)>


> <IC50 (nM)>
 0.210000

> <Kd (nM)>


> <EC50 (nM)>


> <kon (M-1-s-1)>


> <koff (s-1)>


> <pH>


> <Temp C>


> <Curation/DataSource>
ChEMBL

> <Article DOI>
10.1021/jm500261q

> <BindingDB Entry DOI>
10.7270/Q2K35W68

> <PMID>
24819116

> <PubChem AID>


> <Patent Number>


> <Authors>
Johnson, TW; Richardson, PF; Bailey, S; Brooun, A; Burke, BJ; Collins, MR; Cui, JJ; Deal, JG; Deng, YL; Dinh, D; Engstrom, LD; He, M; Hoffman, J; Hoffman, RL; Huang, Q; Kania, RS; Kath, JC; Lam, H; Lam, JL; Le, PT; Lingardo, L; Liu, W; McTigue, M; Palmer, CL; Sach, NW; Smeal, T; Smith, GL; Stewart, AE; Timofeevski, S; Zhu, H; Zhu, J; Zou, HY; Edwards, MP

> <Date of publication>
6/12/2014

> <Date in BindingDB>
2/11/2015

> <Institution>
Pfizer Inc

> <Link to Ligand in BindingDB>
http://www.bindingdb.org/bind/chemsearch/marvin/MolStructure.jsp?monomerid=50018833

> <Link to Ligand-Target Pair in BindingDB>
http://www.bindingdb.org/jsp/dbsearch/PrimarySearch_ki.jsp?energyterm=kJ/mole&tag=pol&polymerid=5809&target=ALK+tyrosine+kinase+receptor&column=ki&startPg=0&Increment=50&submit=Search

> <Link to Ligand-Target Pair in BindingDB>
http://www.bindingdb.org/jsp/dbsearch/PrimarySearch_ki.jsp?energyterm=kJ/mole&tag=r21&monomerid=50018833&enzyme=ALK+tyrosine+kinase+receptor&column=ki&startPg=0&Increment=50&submit=Search

> <Ligand HET ID in PDB>


> <PDB ID(s) for Ligand-Target Complex>


> <PubChem CID of Ligand>
90644199

> <PubChem SID of Ligand>
103929886

> <ChEBI ID of Ligand>


> <ChEMBL ID of Ligand>
CHEMBL3286823

> <DrugBank ID of Ligand>


> <IUPHAR_GRAC ID of Ligand>


> <KEGG ID of Ligand>


> <ZINC ID of Ligand>
ZINC33891534

> <Number of Protein Chains in Target (bigger than 1 implies a multichain complex)>
1

> <BindingDB Target Chain Sequence>
MGAIGLLWLLPLLLSTAAVGSGMGTGQRAGSPAAGPPLQPREPLSYSRLQRKSLAVDFVVPSLFRVYARDLLLPPSSSELKAGRPEARGSLALDCAPLLRLLGPAPGVSWTAGSPAPAEARTLSRVLKGGSVRKLRRAKQLVLELGEEAILEGCVGPPGEAAVGLLQFNLSELFSWWIRQGEGRLRIRLMPEKKASEVGREGRLSAAIRASQPRLLFQIFGTGHSSLESPTNMPSPSPDYFTWNLTWIMKDSFPFLSHRSRYGLECSFDFPCELEYSPPLHDLRNQSWSWRRIPSEEASQMDLLDGPGAERSKEMPRGSFLLLNTSADSKHTILSPWMRSSSEHCTLAVSVHRHLQPSGRYIAQLLPHNEAAREILLMPTPGKHGWTVLQGRIGRPDNPFRVALEYISSGNRSLSAVDFFALKNCSEGTSPGSKMALQSSFTCWNGTVLQLGQACDFHQDCAQGEDESQMCRKLPVGFYCNFEDGFCGWTQGTLSPHTPQWQVRTLKDARFQDHQDHALLLSTTDVPASESATVTSATFPAPIKSSPCELRMSWLIRGVLRGNVSLVLVENKTGKEQGRMVWHVAAYEGLSLWQWMVLPLLDVSDRFWLQMVAWWGQGSRAIVAFDNISISLDCYLTISGEDKILQNTAPKSRNLFERNPNKELKPGENSPRQTPIFDPTVHWLFTTCGASGPHGPTQAQCNNAYQNSNLSVEVGSEGPLKGIQIWKVPATDTYSISGYGAAGGKGGKNTMMRSHGVSVLGIFNLEKDDMLYILVGQQGEDACPSTNQLIQKVCIGENNVIEEEIRVNRSVHEWAGGGGGGGGATYVFKMKDGVPVPLIIAAGGGGRAYGAKTDTFHPERLENNSSVLGLNGNSGAAGGGGGWNDNTSLLWAGKSLQEGATGGHSCPQAMKKWGWETRGGFGGGGGGCSSGGGGGGYIGGNAASNNDPEMDGEDGVSFISPLGILYTPALKVMEGHGEVNIKHYLNCSHCEVDECHMDPESHKVICFCDHGTVLAEDGVSCIVSPTPEPHLPLSLILSVVTSALVAALVLAFSGIMIVYRRKHQELQAMQMELQSPEYKLSKLRTSTIMTDYNPNYCFAGKTSSISDLKEVPRKNITLIRGLGHGAFGEVYEGQVSGMPNDPSPLQVAVKTLPEVCSEQDELDFLMEALIISKFNHQNIVRCIGVSLQSLPRFILLELMAGGDLKSFLRETRPRPSQPSSLAMLDLLHVARDIACGCQYLEENHFIHRDIAARNCLLTCPGPGRVAKIGDFGMARDIYRASYYRKGGCAMLPVKWMPPEAFMEGIFTSKTDTWSFGVLLWEIFSLGYMPYPSKSNQEVLEFVTSGGRMDPPKNCPGPVYRIMTQCWQHQPEDRPNFAIILERIEYCTQDPDVINTALPIEYGPLVEEEEKVPVRPKDPEGVPPLLVSQQAKREEERSPAAPPPLPTTSSGKAAKKPTAAEISVRVPRGPAVEGGHVNMAFSQSNPPSELHKVHGSRNKPTSLWNPTYGSWFTEKPTKKNNPIAKKEPHDRGNLGLEGSCTVPPNVATGRLPGASLLLEPSSLTANMKEVPLFRLRHFPCGNVNYGYQQQGLPLEAATAPGAGHYEDTILKSKNSMNQPGP

> <PDB ID(s) of Target Chain>
2XB7,2XBA,3AOX,5FTO,5FTQ,6E0R,6EBW,6EDL,6MX8,7JY4,7JYR,7JYS,7JYT,7LS0,7MZW,7MZY,7N00,7NX3,7NX4,8ARJ

> <UniProt (SwissProt) Recommended Name of Target Chain>
ALK tyrosine kinase receptor

> <UniProt (SwissProt) Entry Name of Target Chain>
ALK_HUMAN

> <UniProt (SwissProt) Primary ID of Target Chain>
Q9UM73

> <UniProt (SwissProt) Secondary ID(s) of Target Chain>
A6P4T4 A6P4V4 Q4ZFX9 Q53QQ6 Q53RZ4 Q59FI3 Q9Y4K6

> <UniProt (SwissProt) Alternative ID(s) of Target Chain>


> <UniProt (TrEMBL) Submitted Name of Target Chain>


> <UniProt (TrEMBL) Entry Name of Target Chain>


> <UniProt (TrEMBL) Primary ID of Target Chain>


> <UniProt (TrEMBL) Secondary ID(s) of Target Chain>


> <UniProt (TrEMBL) Alternative ID(s) of Target Chain>


$$$$

  SciTegic09261414532D

 32 35  0  0  0  0            999 V2000
    9.5141   -4.2540    0.0000 S   0  0
    9.0957   -4.9560    0.0000 O   0  0
    9.9128   -4.9674    0.0000 O   0  0
    4.6404   -3.7483    0.0000 O   0  0
    3.9398   -4.1320    0.0000 C   0  0  1  0  0  0
    3.2542   -3.7153    0.0000 C   0  0
    3.2780   -2.9146    0.0000 C   0  0
    2.5933   -2.4979    0.0000 C   0  0
    1.8917   -2.8817    0.0000 C   0  0
    1.8752   -3.6864    0.0000 C   0  0
    2.5606   -4.0994    0.0000 C   0  0
    3.9839   -2.5331    0.0000 C   0  0
    1.1719   -4.0726    0.0000 F   0  0
    5.3076   -4.1644    0.0000 C   0  0
    6.7149   -4.1988    0.0000 C   0  0
    5.3078   -4.9672    0.0000 C   0  0
    6.0325   -3.7814    0.0000 N   0  0
    6.6958   -5.0003    0.0000 C   0  0
    5.9943   -5.3846    0.0000 N   0  0
    4.6021   -5.3515    0.0000 N   0  0
    4.6798   -2.9615    0.0000 O   0  0
    4.0069   -1.7163    0.0000 N   0  0
    4.7258   -1.3277    0.0000 C   0  0
    3.3110   -1.2879    0.0000 C   0  0
    3.5247   -4.8371    0.0000 C   0  0
    7.4317   -3.0087    0.0000 C   0  0
    7.4181   -3.8145    0.0000 C   0  0
    8.1081   -4.2274    0.0000 C   0  0
    8.8122   -3.8356    0.0000 C   0  0
    8.8219   -3.0267    0.0000 C   0  0
    8.1313   -2.6174    0.0000 C   0  0
   10.2274   -3.8553    0.0000 C   0  0
  2  1  2  0
  1  3  2  0
 14  4  1  0
  4  5  1  0
  5  6  1  0
  6  7  2  0
  7  8  1  0
  8  9  2  0
  9 10  1  0
 10 11  2  0
 11  6  1  0
  7 12  1  0
 10 13  1  0
 16 14  1  0
 14 17  2  0
 17 15  1  0
 15 18  2  0
 18 19  1  0
 16 19  2  0
 16 20  1  0
 15 27  1  0
 12 21  2  0
 12 22  1  0
 22 23  1  0
 22 24  1  0
 23 26  1  0
  5 25  1  6
 26 27  2  0
 27 28  1  0
 28 29  2  0
 29 30  1  0
 30 31  2  0
 31 26  1  0
 29  1  1  0
  1 32  1  0
M  END
> <From>
www.bindingDB.org

> <BindingDB Reactant_set_id>
50103700

> <Ligand InChI>
InChI=1S/C22H21FN4O4S/c1-12-17-8-14(23)5-7-16(17)22(28)27(2)11-13-4-6-15(32(3,29)30)9-18(13)19-10-25-20(24)21(26-19)31-12/h4-10,12H,11H2,1-3H3,(H2,24,25)/t12-/m1/s1

> <Ligand InChI Key>
YNONWHZLPLWALE-GFCCVEGCSA-N

> <BindingDB MonomerID>
50018838

> <BindingDB Ligand Name>
CHEMBL3286828

> <Target Name>
ALK tyrosine kinase receptor

> <Target Source Organism According to Curator or DataSource>
Homo sapiens

> <Ki (nM)>


> <IC50 (nM)>
 0.340000

> <Kd (nM)>


> <EC50 (nM)>


> <kon (M-1-s-1)>


> <koff (s-1)>


> <pH>


> <Temp C>


> <Curation/DataSource>
ChEMBL

> <Article DOI>
10.1021/jm500261q

> <BindingDB Entry DOI>
10.7270/Q2K35W68

> <PMID>
24819116

> <PubChem AID>


> <Patent Number>


> <Authors>
Johnson, TW; Richardson, PF; Bailey, S; Brooun, A; Burke, BJ; Collins, MR; Cui, JJ; Deal, JG; Deng, YL; Dinh, D; Engstrom, LD; He, M; Hoffman, J; Hoffman, RL; Huang, Q; Kania, RS; Kath, JC; Lam, H; Lam, JL; Le, PT; Lingardo, L; Liu, W; McTigue, M; Palmer, CL; Sach, NW; Smeal, T; Smith, GL; Stewart, AE; Timofeevski, S; Zhu, H; Zhu, J; Zou, HY; Edwards, MP

> <Date of publication>
6/12/2014

> <Date in BindingDB>
2/11/2015

> <Institution>
Pfizer Inc

> <Link to Ligand in BindingDB>
http://www.bindingdb.org/bind/chemsearch/marvin/MolStructure.jsp?monomerid=50018838

> <Link to Ligand-Target Pair in BindingDB>
http://www.bindingdb.org/jsp/dbsearch/PrimarySearch_ki.jsp?energyterm=kJ/mole&tag=pol&polymerid=5809&target=ALK+tyrosine+kinase+receptor&column=ki&startPg=0&Increment=50&submit=Search

> <Link to Ligand-Target Pair in BindingDB>
http://www.bindingdb.org/jsp/dbsearch/PrimarySearch_ki.jsp?energyterm=kJ/mole&tag=r21&monomerid=50018838&enzyme=ALK+tyrosine+kinase+receptor&column=ki&startPg=0&Increment=50&submit=Search

> <Ligand HET ID in PDB>


> <PDB ID(s) for Ligand-Target Complex>


> <PubChem CID of Ligand>
90644202

> <PubChem SID of Ligand>
103929891

> <ChEBI ID of Ligand>


> <ChEMBL ID of Ligand>
CHEMBL3286828

> <DrugBank ID of Ligand>


> <IUPHAR_GRAC ID of Ligand>


> <KEGG ID of Ligand>


> <ZINC ID of Ligand>
ZINC36080040

> <Number of Protein Chains in Target (bigger than 1 implies a multichain complex)>
1

> <BindingDB Target Chain Sequence>
MGAIGLLWLLPLLLSTAAVGSGMGTGQRAGSPAAGPPLQPREPLSYSRLQRKSLAVDFVVPSLFRVYARDLLLPPSSSELKAGRPEARGSLALDCAPLLRLLGPAPGVSWTAGSPAPAEARTLSRVLKGGSVRKLRRAKQLVLELGEEAILEGCVGPPGEAAVGLLQFNLSELFSWWIRQGEGRLRIRLMPEKKASEVGREGRLSAAIRASQPRLLFQIFGTGHSSLESPTNMPSPSPDYFTWNLTWIMKDSFPFLSHRSRYGLECSFDFPCELEYSPPLHDLRNQSWSWRRIPSEEASQMDLLDGPGAERSKEMPRGSFLLLNTSADSKHTILSPWMRSSSEHCTLAVSVHRHLQPSGRYIAQLLPHNEAAREILLMPTPGKHGWTVLQGRIGRPDNPFRVALEYISSGNRSLSAVDFFALKNCSEGTSPGSKMALQSSFTCWNGTVLQLGQACDFHQDCAQGEDESQMCRKLPVGFYCNFEDGFCGWTQGTLSPHTPQWQVRTLKDARFQDHQDHALLLSTTDVPASESATVTSATFPAPIKSSPCELRMSWLIRGVLRGNVSLVLVENKTGKEQGRMVWHVAAYEGLSLWQWMVLPLLDVSDRFWLQMVAWWGQGSRAIVAFDNISISLDCYLTISGEDKILQNTAPKSRNLFERNPNKELKPGENSPRQTPIFDPTVHWLFTTCGASGPHGPTQAQCNNAYQNSNLSVEVGSEGPLKGIQIWKVPATDTYSISGYGAAGGKGGKNTMMRSHGVSVLGIFNLEKDDMLYILVGQQGEDACPSTNQLIQKVCIGENNVIEEEIRVNRSVHEWAGGGGGGGGATYVFKMKDGVPVPLIIAAGGGGRAYGAKTDTFHPERLENNSSVLGLNGNSGAAGGGGGWNDNTSLLWAGKSLQEGATGGHSCPQAMKKWGWETRGGFGGGGGGCSSGGGGGGYIGGNAASNNDPEMDGEDGVSFISPLGILYTPALKVMEGHGEVNIKHYLNCSHCEVDECHMDPESHKVICFCDHGTVLAEDGVSCIVSPTPEPHLPLSLILSVVTSALVAALVLAFSGIMIVYRRKHQELQAMQMELQSPEYKLSKLRTSTIMTDYNPNYCFAGKTSSISDLKEVPRKNITLIRGLGHGAFGEVYEGQVSGMPNDPSPLQVAVKTLPEVCSEQDELDFLMEALIISKFNHQNIVRCIGVSLQSLPRFILLELMAGGDLKSFLRETRPRPSQPSSLAMLDLLHVARDIACGCQYLEENHFIHRDIAARNCLLTCPGPGRVAKIGDFGMARDIYRASYYRKGGCAMLPVKWMPPEAFMEGIFTSKTDTWSFGVLLWEIFSLGYMPYPSKSNQEVLEFVTSGGRMDPPKNCPGPVYRIMTQCWQHQPEDRPNFAIILERIEYCTQDPDVINTALPIEYGPLVEEEEKVPVRPKDPEGVPPLLVSQQAKREEERSPAAPPPLPTTSSGKAAKKPTAAEISVRVPRGPAVEGGHVNMAFSQSNPPSELHKVHGSRNKPTSLWNPTYGSWFTEKPTKKNNPIAKKEPHDRGNLGLEGSCTVPPNVATGRLPGASLLLEPSSLTANMKEVPLFRLRHFPCGNVNYGYQQQGLPLEAATAPGAGHYEDTILKSKNSMNQPGP

> <PDB ID(s) of Target Chain>
2XB7,2XBA,3AOX,5FTO,5FTQ,6E0R,6EBW,6EDL,6MX8,7JY4,7JYR,7JYS,7JYT,7LS0,7MZW,7MZY,7N00,7NX3,7NX4,8ARJ

> <UniProt (SwissProt) Recommended Name of Target Chain>
ALK tyrosine kinase receptor

> <UniProt (SwissProt) Entry Name of Target Chain>
ALK_HUMAN

> <UniProt (SwissProt) Primary ID of Target Chain>
Q9UM73

> <UniProt (SwissProt) Secondary ID(s) of Target Chain>
A6P4T4 A6P4V4 Q4ZFX9 Q53QQ6 Q53RZ4 Q59FI3 Q9Y4K6

> <UniProt (SwissProt) Alternative ID(s) of Target Chain>


> <UniProt (TrEMBL) Submitted Name of Target Chain>


> <UniProt (TrEMBL) Entry Name of Target Chain>


> <UniProt (TrEMBL) Primary ID of Target Chain>


> <UniProt (TrEMBL) Secondary ID(s) of Target Chain>


> <UniProt (TrEMBL) Alternative ID(s) of Target Chain>


$$$$

  SciTegic09261414532D

 29 32  0  0  0  0            999 V2000
    4.9153   -4.1332    0.0000 O   0  0
    4.1943   -4.5280    0.0000 C   0  0  1  0  0  0
    3.4888   -4.0991    0.0000 C   0  0
    3.5133   -3.2753    0.0000 C   0  0
    2.8087   -2.8465    0.0000 C   0  0
    2.0868   -3.2413    0.0000 C   0  0
    2.0698   -4.0695    0.0000 C   0  0
    2.7751   -4.4945    0.0000 C   0  0
    4.2397   -2.8827    0.0000 C   0  0
    1.3461   -4.4669    0.0000 F   0  0
    7.7890   -3.3721    0.0000 C   0  0
    5.6018   -4.5613    0.0000 C   0  0
    7.0500   -4.5968    0.0000 C   0  0
    5.6020   -5.3875    0.0000 C   0  0
    6.3478   -4.1673    0.0000 C   0  0
    7.0303   -5.4215    0.0000 C   0  0
    6.3085   -5.8169    0.0000 N   0  0
    4.8758   -5.7828    0.0000 N   0  0
    7.7736   -4.2013    0.0000 C   0  0
    8.5501   -4.4702    0.0000 C   0  0
    9.0507   -3.8141    0.0000 N   0  0
    8.5802   -3.1403    0.0000 N   0  0
    8.7884   -5.2575    0.0000 C   0  0
    3.7756   -5.2408    0.0000 C   0  0
    4.9558   -3.3235    0.0000 O   0  0
    4.2634   -2.0421    0.0000 N   0  0
    5.0031   -1.6423    0.0000 C   0  0
    3.5473   -1.6014    0.0000 C   0  0
    8.8592   -2.3470    0.0000 C   0  0
 12  1  1  0
  1  2  1  0
  2  3  1  0
  3  4  2  0
  4  5  1  0
  5  6  2  0
  6  7  1  0
  7  8  2  0
  8  3  1  0
  4  9  1  0
  7 10  1  0
 14 12  1  0
 12 15  2  0
 15 13  1  0
 13 16  2  0
 16 17  1  0
 14 17  2  0
 14 18  1  0
 13 19  1  0
 11 19  2  0
 19 20  1  0
 20 21  2  0
 21 22  1  0
 22 11  1  0
 20 23  1  0
  2 24  1  6
  9 25  2  0
  9 26  1  0
 26 27  1  0
 26 28  1  0
 27 11  1  0
 22 29  1  0
M  END
> <From>
www.bindingDB.org

> <BindingDB Reactant_set_id>
50103693

> <Ligand InChI>
InChI=1S/C21H22FN5O2/c1-11-19-13-7-18(20(23)24-9-13)29-12(2)16-8-14(22)5-6-15(16)21(28)26(3)10-17(19)27(4)25-11/h5-9,12H,10H2,1-4H3,(H2,23,24)/t12-/m1/s1

> <Ligand InChI Key>
ASQDMAQHZGURLM-GFCCVEGCSA-N

> <BindingDB MonomerID>
50018815

> <BindingDB Ligand Name>
CHEMBL3286820

> <Target Name>
ALK tyrosine kinase receptor

> <Target Source Organism According to Curator or DataSource>
Homo sapiens

> <Ki (nM)>


> <IC50 (nM)>
 0.700000

> <Kd (nM)>


> <EC50 (nM)>


> <kon (M-1-s-1)>


> <koff (s-1)>


> <pH>


> <Temp C>


> <Curation/DataSource>
ChEMBL

> <Article DOI>
10.1021/jm500261q

> <BindingDB Entry DOI>
10.7270/Q2K35W68

> <PMID>
24819116

> <PubChem AID>


> <Patent Number>


> <Authors>
Johnson, TW; Richardson, PF; Bailey, S; Brooun, A; Burke, BJ; Collins, MR; Cui, JJ; Deal, JG; Deng, YL; Dinh, D; Engstrom, LD; He, M; Hoffman, J; Hoffman, RL; Huang, Q; Kania, RS; Kath, JC; Lam, H; Lam, JL; Le, PT; Lingardo, L; Liu, W; McTigue, M; Palmer, CL; Sach, NW; Smeal, T; Smith, GL; Stewart, AE; Timofeevski, S; Zhu, H; Zhu, J; Zou, HY; Edwards, MP

> <Date of publication>
6/12/2014

> <Date in BindingDB>
2/11/2015

> <Institution>
Pfizer Inc

> <Link to Ligand in BindingDB>
http://www.bindingdb.org/bind/chemsearch/marvin/MolStructure.jsp?monomerid=50018815

> <Link to Ligand-Target Pair in BindingDB>
http://www.bindingdb.org/jsp/dbsearch/PrimarySearch_ki.jsp?energyterm=kJ/mole&tag=pol&polymerid=5809&target=ALK+tyrosine+kinase+receptor&column=ki&startPg=0&Increment=50&submit=Search

> <Link to Ligand-Target Pair in BindingDB>
http://www.bindingdb.org/jsp/dbsearch/PrimarySearch_ki.jsp?energyterm=kJ/mole&tag=r21&monomerid=50018815&enzyme=ALK+tyrosine+kinase+receptor&column=ki&startPg=0&Increment=50&submit=Search

> <Ligand HET ID in PDB>
IV7

> <PDB ID(s) for Ligand-Target Complex>
4CMU

> <PubChem CID of Ligand>
90644193

> <PubChem SID of Ligand>
103929868

> <ChEBI ID of Ligand>


> <ChEMBL ID of Ligand>
CHEMBL3286820

> <DrugBank ID of Ligand>


> <IUPHAR_GRAC ID of Ligand>


> <KEGG ID of Ligand>


> <ZINC ID of Ligand>
ZINC33891509

> <Number of Protein Chains in Target (bigger than 1 implies a multichain complex)>
1

> <BindingDB Target Chain Sequence>
MGAIGLLWLLPLLLSTAAVGSGMGTGQRAGSPAAGPPLQPREPLSYSRLQRKSLAVDFVVPSLFRVYARDLLLPPSSSELKAGRPEARGSLALDCAPLLRLLGPAPGVSWTAGSPAPAEARTLSRVLKGGSVRKLRRAKQLVLELGEEAILEGCVGPPGEAAVGLLQFNLSELFSWWIRQGEGRLRIRLMPEKKASEVGREGRLSAAIRASQPRLLFQIFGTGHSSLESPTNMPSPSPDYFTWNLTWIMKDSFPFLSHRSRYGLECSFDFPCELEYSPPLHDLRNQSWSWRRIPSEEASQMDLLDGPGAERSKEMPRGSFLLLNTSADSKHTILSPWMRSSSEHCTLAVSVHRHLQPSGRYIAQLLPHNEAAREILLMPTPGKHGWTVLQGRIGRPDNPFRVALEYISSGNRSLSAVDFFALKNCSEGTSPGSKMALQSSFTCWNGTVLQLGQACDFHQDCAQGEDESQMCRKLPVGFYCNFEDGFCGWTQGTLSPHTPQWQVRTLKDARFQDHQDHALLLSTTDVPASESATVTSATFPAPIKSSPCELRMSWLIRGVLRGNVSLVLVENKTGKEQGRMVWHVAAYEGLSLWQWMVLPLLDVSDRFWLQMVAWWGQGSRAIVAFDNISISLDCYLTISGEDKILQNTAPKSRNLFERNPNKELKPGENSPRQTPIFDPTVHWLFTTCGASGPHGPTQAQCNNAYQNSNLSVEVGSEGPLKGIQIWKVPATDTYSISGYGAAGGKGGKNTMMRSHGVSVLGIFNLEKDDMLYILVGQQGEDACPSTNQLIQKVCIGENNVIEEEIRVNRSVHEWAGGGGGGGGATYVFKMKDGVPVPLIIAAGGGGRAYGAKTDTFHPERLENNSSVLGLNGNSGAAGGGGGWNDNTSLLWAGKSLQEGATGGHSCPQAMKKWGWETRGGFGGGGGGCSSGGGGGGYIGGNAASNNDPEMDGEDGVSFISPLGILYTPALKVMEGHGEVNIKHYLNCSHCEVDECHMDPESHKVICFCDHGTVLAEDGVSCIVSPTPEPHLPLSLILSVVTSALVAALVLAFSGIMIVYRRKHQELQAMQMELQSPEYKLSKLRTSTIMTDYNPNYCFAGKTSSISDLKEVPRKNITLIRGLGHGAFGEVYEGQVSGMPNDPSPLQVAVKTLPEVCSEQDELDFLMEALIISKFNHQNIVRCIGVSLQSLPRFILLELMAGGDLKSFLRETRPRPSQPSSLAMLDLLHVARDIACGCQYLEENHFIHRDIAARNCLLTCPGPGRVAKIGDFGMARDIYRASYYRKGGCAMLPVKWMPPEAFMEGIFTSKTDTWSFGVLLWEIFSLGYMPYPSKSNQEVLEFVTSGGRMDPPKNCPGPVYRIMTQCWQHQPEDRPNFAIILERIEYCTQDPDVINTALPIEYGPLVEEEEKVPVRPKDPEGVPPLLVSQQAKREEERSPAAPPPLPTTSSGKAAKKPTAAEISVRVPRGPAVEGGHVNMAFSQSNPPSELHKVHGSRNKPTSLWNPTYGSWFTEKPTKKNNPIAKKEPHDRGNLGLEGSCTVPPNVATGRLPGASLLLEPSSLTANMKEVPLFRLRHFPCGNVNYGYQQQGLPLEAATAPGAGHYEDTILKSKNSMNQPGP

> <PDB ID(s) of Target Chain>
2XB7,2XBA,3AOX,5FTO,5FTQ,6E0R,6EBW,6EDL,6MX8,7JY4,7JYR,7JYS,7JYT,7LS0,7MZW,7MZY,7N00,7NX3,7NX4,8ARJ

> <UniProt (SwissProt) Recommended Name of Target Chain>
ALK tyrosine kinase receptor

> <UniProt (SwissProt) Entry Name of Target Chain>
ALK_HUMAN

> <UniProt (SwissProt) Primary ID of Target Chain>
Q9UM73

> <UniProt (SwissProt) Secondary ID(s) of Target Chain>
A6P4T4 A6P4V4 Q4ZFX9 Q53QQ6 Q53RZ4 Q59FI3 Q9Y4K6

> <UniProt (SwissProt) Alternative ID(s) of Target Chain>


> <UniProt (TrEMBL) Submitted Name of Target Chain>


> <UniProt (TrEMBL) Entry Name of Target Chain>


> <UniProt (TrEMBL) Primary ID of Target Chain>


> <UniProt (TrEMBL) Secondary ID(s) of Target Chain>


> <UniProt (TrEMBL) Alternative ID(s) of Target Chain>


$$$$

  SciTegic09261414532D

 30 33  0  0  0  0            999 V2000
   14.7686   -4.6646    0.0000 O   0  0
   14.0680   -5.0483    0.0000 C   0  0  1  0  0  0
   13.3824   -4.6315    0.0000 C   0  0
   13.4062   -3.8309    0.0000 C   0  0
   12.7215   -3.4142    0.0000 C   0  0
   12.0199   -3.7979    0.0000 C   0  0
   12.0034   -4.6027    0.0000 C   0  0
   12.6888   -5.0156    0.0000 C   0  0
   14.1121   -3.4494    0.0000 C   0  0
   11.3001   -4.9889    0.0000 F   0  0
   17.5614   -3.9250    0.0000 C   0  0
   15.4358   -5.0806    0.0000 C   0  0
   16.8432   -5.1150    0.0000 C   0  0
   15.4360   -5.8835    0.0000 C   0  0
   16.1608   -4.6977    0.0000 N   0  0
   16.8240   -5.9166    0.0000 C   0  0
   16.1225   -6.3008    0.0000 N   0  0
   14.7303   -6.2677    0.0000 N   0  0
   17.5464   -4.7308    0.0000 C   0  0
   18.3009   -4.9921    0.0000 C   0  0
   18.7874   -4.3544    0.0000 N   0  0
   18.3302   -3.6997    0.0000 N   0  0
   18.5325   -5.7572    0.0000 O   0  0
   13.6611   -5.7410    0.0000 C   0  0
   14.8081   -3.8777    0.0000 O   0  0
   14.1351   -2.6325    0.0000 N   0  0
   14.8540   -2.2440    0.0000 C   0  0
   13.4392   -2.2042    0.0000 C   0  0
   18.6013   -2.9288    0.0000 C   0  0
   19.3283   -5.9432    0.0000 C   0  0
 12  1  1  0
  1  2  1  0
  2  3  1  0
  3  4  2  0
  4  5  1  0
  5  6  2  0
  6  7  1  0
  7  8  2  0
  8  3  1  0
  4  9  1  0
  7 10  1  0
 14 12  1  0
 12 15  2  0
 15 13  1  0
 13 16  2  0
 16 17  1  0
 14 17  2  0
 14 18  1  0
 13 19  1  0
 11 19  2  0
 19 20  1  0
 20 21  2  0
 21 22  1  0
 22 11  1  0
 20 23  1  0
  2 24  1  6
  9 25  2  0
  9 26  1  0
 26 27  1  0
 26 28  1  0
 27 11  1  0
 22 29  1  0
 23 30  1  0
M  END
> <From>
www.bindingDB.org

> <BindingDB Reactant_set_id>
50103581

> <Ligand InChI>
InChI=1S/C20H21FN6O3/c1-10-13-7-11(21)5-6-12(13)20(28)26(2)9-15-16(18(29-4)25-27(15)3)14-8-23-17(22)19(24-14)30-10/h5-8,10H,9H2,1-4H3,(H2,22,23)/t10-/m1/s1

> <Ligand InChI Key>
ONGPJRHQODCQNJ-SNVBAGLBSA-N

> <BindingDB MonomerID>
50018836

> <BindingDB Ligand Name>
CHEMBL3286826

> <Target Name>
ALK tyrosine kinase receptor

> <Target Source Organism According to Curator or DataSource>
Homo sapiens

> <Ki (nM)>


> <IC50 (nM)>
 0.750000

> <Kd (nM)>


> <EC50 (nM)>


> <kon (M-1-s-1)>


> <koff (s-1)>


> <pH>


> <Temp C>


> <Curation/DataSource>
ChEMBL

> <Article DOI>
10.1021/jm500261q

> <BindingDB Entry DOI>
10.7270/Q2K35W68

> <PMID>
24819116

> <PubChem AID>


> <Patent Number>


> <Authors>
Johnson, TW; Richardson, PF; Bailey, S; Brooun, A; Burke, BJ; Collins, MR; Cui, JJ; Deal, JG; Deng, YL; Dinh, D; Engstrom, LD; He, M; Hoffman, J; Hoffman, RL; Huang, Q; Kania, RS; Kath, JC; Lam, H; Lam, JL; Le, PT; Lingardo, L; Liu, W; McTigue, M; Palmer, CL; Sach, NW; Smeal, T; Smith, GL; Stewart, AE; Timofeevski, S; Zhu, H; Zhu, J; Zou, HY; Edwards, MP

> <Date of publication>
6/12/2014

> <Date in BindingDB>
2/11/2015

> <Institution>
Pfizer Inc

> <Link to Ligand in BindingDB>
http://www.bindingdb.org/bind/chemsearch/marvin/MolStructure.jsp?monomerid=50018836

> <Link to Ligand-Target Pair in BindingDB>
http://www.bindingdb.org/jsp/dbsearch/PrimarySearch_ki.jsp?energyterm=kJ/mole&tag=pol&polymerid=5809&target=ALK+tyrosine+kinase+receptor&column=ki&startPg=0&Increment=50&submit=Search

> <Link to Ligand-Target Pair in BindingDB>
http://www.bindingdb.org/jsp/dbsearch/PrimarySearch_ki.jsp?energyterm=kJ/mole&tag=r21&monomerid=50018836&enzyme=ALK+tyrosine+kinase+receptor&column=ki&startPg=0&Increment=50&submit=Search

> <Ligand HET ID in PDB>


> <PDB ID(s) for Ligand-Target Complex>


> <PubChem CID of Ligand>
90644201

> <PubChem SID of Ligand>
103929889

> <ChEBI ID of Ligand>


> <ChEMBL ID of Ligand>
CHEMBL3286826

> <DrugBank ID of Ligand>


> <IUPHAR_GRAC ID of Ligand>


> <KEGG ID of Ligand>


> <ZINC ID of Ligand>
ZINC33891505

> <Number of Protein Chains in Target (bigger than 1 implies a multichain complex)>
1

> <BindingDB Target Chain Sequence>
MGAIGLLWLLPLLLSTAAVGSGMGTGQRAGSPAAGPPLQPREPLSYSRLQRKSLAVDFVVPSLFRVYARDLLLPPSSSELKAGRPEARGSLALDCAPLLRLLGPAPGVSWTAGSPAPAEARTLSRVLKGGSVRKLRRAKQLVLELGEEAILEGCVGPPGEAAVGLLQFNLSELFSWWIRQGEGRLRIRLMPEKKASEVGREGRLSAAIRASQPRLLFQIFGTGHSSLESPTNMPSPSPDYFTWNLTWIMKDSFPFLSHRSRYGLECSFDFPCELEYSPPLHDLRNQSWSWRRIPSEEASQMDLLDGPGAERSKEMPRGSFLLLNTSADSKHTILSPWMRSSSEHCTLAVSVHRHLQPSGRYIAQLLPHNEAAREILLMPTPGKHGWTVLQGRIGRPDNPFRVALEYISSGNRSLSAVDFFALKNCSEGTSPGSKMALQSSFTCWNGTVLQLGQACDFHQDCAQGEDESQMCRKLPVGFYCNFEDGFCGWTQGTLSPHTPQWQVRTLKDARFQDHQDHALLLSTTDVPASESATVTSATFPAPIKSSPCELRMSWLIRGVLRGNVSLVLVENKTGKEQGRMVWHVAAYEGLSLWQWMVLPLLDVSDRFWLQMVAWWGQGSRAIVAFDNISISLDCYLTISGEDKILQNTAPKSRNLFERNPNKELKPGENSPRQTPIFDPTVHWLFTTCGASGPHGPTQAQCNNAYQNSNLSVEVGSEGPLKGIQIWKVPATDTYSISGYGAAGGKGGKNTMMRSHGVSVLGIFNLEKDDMLYILVGQQGEDACPSTNQLIQKVCIGENNVIEEEIRVNRSVHEWAGGGGGGGGATYVFKMKDGVPVPLIIAAGGGGRAYGAKTDTFHPERLENNSSVLGLNGNSGAAGGGGGWNDNTSLLWAGKSLQEGATGGHSCPQAMKKWGWETRGGFGGGGGGCSSGGGGGGYIGGNAASNNDPEMDGEDGVSFISPLGILYTPALKVMEGHGEVNIKHYLNCSHCEVDECHMDPESHKVICFCDHGTVLAEDGVSCIVSPTPEPHLPLSLILSVVTSALVAALVLAFSGIMIVYRRKHQELQAMQMELQSPEYKLSKLRTSTIMTDYNPNYCFAGKTSSISDLKEVPRKNITLIRGLGHGAFGEVYEGQVSGMPNDPSPLQVAVKTLPEVCSEQDELDFLMEALIISKFNHQNIVRCIGVSLQSLPRFILLELMAGGDLKSFLRETRPRPSQPSSLAMLDLLHVARDIACGCQYLEENHFIHRDIAARNCLLTCPGPGRVAKIGDFGMARDIYRASYYRKGGCAMLPVKWMPPEAFMEGIFTSKTDTWSFGVLLWEIFSLGYMPYPSKSNQEVLEFVTSGGRMDPPKNCPGPVYRIMTQCWQHQPEDRPNFAIILERIEYCTQDPDVINTALPIEYGPLVEEEEKVPVRPKDPEGVPPLLVSQQAKREEERSPAAPPPLPTTSSGKAAKKPTAAEISVRVPRGPAVEGGHVNMAFSQSNPPSELHKVHGSRNKPTSLWNPTYGSWFTEKPTKKNNPIAKKEPHDRGNLGLEGSCTVPPNVATGRLPGASLLLEPSSLTANMKEVPLFRLRHFPCGNVNYGYQQQGLPLEAATAPGAGHYEDTILKSKNSMNQPGP

> <PDB ID(s) of Target Chain>
2XB7,2XBA,3AOX,5FTO,5FTQ,6E0R,6EBW,6EDL,6MX8,7JY4,7JYR,7JYS,7JYT,7LS0,7MZW,7MZY,7N00,7NX3,7NX4,8ARJ

> <UniProt (SwissProt) Recommended Name of Target Chain>
ALK tyrosine kinase receptor

> <UniProt (SwissProt) Entry Name of Target Chain>
ALK_HUMAN

> <UniProt (SwissProt) Primary ID of Target Chain>
Q9UM73

> <UniProt (SwissProt) Secondary ID(s) of Target Chain>
A6P4T4 A6P4V4 Q4ZFX9 Q53QQ6 Q53RZ4 Q59FI3 Q9Y4K6

> <UniProt (SwissProt) Alternative ID(s) of Target Chain>


> <UniProt (TrEMBL) Submitted Name of Target Chain>


> <UniProt (TrEMBL) Entry Name of Target Chain>


> <UniProt (TrEMBL) Primary ID of Target Chain>


> <UniProt (TrEMBL) Secondary ID(s) of Target Chain>


> <UniProt (TrEMBL) Alternative ID(s) of Target Chain>


$$$$

  Mrv0541 11241420102D          

 33 36  0  0  0  0            999 V2000
    7.9746   -9.5163    0.0000 C   0  0  0  0  0  0  0  0  0  0  0  0
    7.9641   -8.6912    0.0000 C   0  0  0  0  0  0  0  0  0  0  0  0
    7.2465   -8.2898    0.0000 C   0  0  0  0  0  0  0  0  0  0  0  0
    6.5352   -8.7093    0.0000 C   0  0  0  0  0  0  0  0  0  0  0  0
    6.5458   -9.5345    0.0000 C   0  0  0  0  0  0  0  0  0  0  0  0
    7.2675   -9.9400    0.0000 N   0  0  0  0  0  0  0  0  0  0  0  0
    5.8177   -8.3081    0.0000 O   0  0  0  0  0  0  0  0  0  0  0  0
    5.8071   -7.4829    0.0000 C   0  0  2  0  0  0  0  0  0  0  0  0
    6.5142   -7.0592    0.0000 C   0  0  0  0  0  0  0  0  0  0  0  0
    5.0895   -7.0774    0.0000 C   0  0  0  0  0  0  0  0  0  0  0  0
    5.0789   -6.2523    0.0000 C   0  0  0  0  0  0  0  0  0  0  0  0
    4.3572   -5.8510    0.0000 C   0  0  0  0  0  0  0  0  0  0  0  0
    3.6460   -6.2706    0.0000 C   0  0  0  0  0  0  0  0  0  0  0  0
    3.6565   -7.0957    0.0000 C   0  0  0  0  0  0  0  0  0  0  0  0
    4.3783   -7.5012    0.0000 C   0  0  0  0  0  0  0  0  0  0  0  0
    5.8642   -5.0133    0.0000 N   0  0  0  0  0  0  0  0  0  0  0  0
    5.7860   -5.8328    0.0000 N   0  0  0  0  0  0  0  0  0  0  0  0
    6.5410   -6.1550    0.0000 N   0  0  0  0  0  0  0  0  0  0  0  0
    7.0878   -5.5386    0.0000 C   0  0  0  0  0  0  0  0  0  0  0  0
    6.6681   -4.8315    0.0000 C   0  0  0  0  0  0  0  0  0  0  0  0
    2.9494   -7.5194    0.0000 F   0  0  0  0  0  0  0  0  0  0  0  0
    5.8387   -9.9583    0.0000 N   0  0  0  0  0  0  0  0  0  0  0  0
    8.6719   -8.2709    0.0000 C   0  0  0  0  0  0  0  0  0  0  0  0
    9.4298   -8.5915    0.0000 C   0  0  0  0  0  0  0  0  0  0  0  0
    9.9733   -7.9743    0.0000 N   0  0  0  0  0  0  0  0  0  0  0  0
    9.5488   -7.2665    0.0000 C   0  0  0  0  0  0  0  0  0  0  0  0
    8.7457   -7.4489    0.0000 S   0  0  0  0  0  0  0  0  0  0  0  0
    9.6132   -9.3958    0.0000 C   0  0  0  0  0  0  0  0  0  0  0  0
    9.8713   -6.5114    0.0000 C   0  0  2  0  0  0  0  0  0  0  0  0
   10.6863   -6.4132    0.0000 C   0  0  0  0  0  0  0  0  0  0  0  0
   11.0088   -5.6581    0.0000 O   0  0  0  0  0  0  0  0  0  0  0  0
    9.0726   -6.2944    0.0000 C   0  0  0  0  0  0  0  0  0  0  0  0
    9.8646   -5.6891    0.0000 O   0  0  0  0  0  0  0  0  0  0  0  0
  1  2  2  0  0  0  0
  2  3  1  0  0  0  0
  3  4  2  0  0  0  0
  4  5  1  0  0  0  0
  5  6  2  0  0  0  0
  1  6  1  0  0  0  0
  8  9  1  1  0  0  0
  8  7  1  0  0  0  0
 10 11  2  0  0  0  0
 11 12  1  0  0  0  0
 12 13  2  0  0  0  0
 13 14  1  0  0  0  0
 14 15  2  0  0  0  0
 10 15  1  0  0  0  0
 16 17  1  0  0  0  0
 17 18  1  0  0  0  0
 18 19  2  0  0  0  0
 19 20  1  0  0  0  0
 16 20  2  0  0  0  0
 11 17  1  0  0  0  0
 14 21  1  0  0  0  0
  8 10  1  0  0  0  0
  4  7  1  0  0  0  0
  5 22  1  0  0  0  0
  2 23  1  0  0  0  0
 23 24  2  0  0  0  0
 24 25  1  0  0  0  0
 25 26  2  0  0  0  0
 26 27  1  0  0  0  0
 27 23  1  0  0  0  0
 24 28  1  0  0  0  0
 29 26  1  0  0  0  0
 29 30  1  0  0  0  0
 30 31  1  0  0  0  0
 29 32  1  1  0  0  0
 29 33  1  6  0  0  0
M  END
> <From>
www.bindingDB.org

> <BindingDB Reactant_set_id>
50103679

> <Ligand InChI>
InChI=1S/C22H23FN6O3S/c1-12-19(33-21(28-12)22(3,31)11-30)14-8-18(20(24)25-10-14)32-13(2)16-9-15(23)4-5-17(16)29-26-6-7-27-29/h4-10,13,30-31H,11H2,1-3H3,(H2,24,25)/t13-,22-/m1/s1

> <Ligand InChI Key>
DIXMBHMNEHPFCX-MCMMXHMISA-N

> <BindingDB MonomerID>
50448785

> <BindingDB Ligand Name>
CHEMBL3128069

> <Target Name>
ALK tyrosine kinase receptor

> <Target Source Organism According to Curator or DataSource>
Homo sapiens

> <Ki (nM)>


> <IC50 (nM)>
 0.760000

> <Kd (nM)>


> <EC50 (nM)>


> <kon (M-1-s-1)>


> <koff (s-1)>


> <pH>


> <Temp C>


> <Curation/DataSource>
ChEMBL

> <Article DOI>
10.1021/jm500261q

> <BindingDB Entry DOI>
10.7270/Q2K35W68

> <PMID>
24819116

> <PubChem AID>


> <Patent Number>


> <Authors>
Johnson, TW; Richardson, PF; Bailey, S; Brooun, A; Burke, BJ; Collins, MR; Cui, JJ; Deal, JG; Deng, YL; Dinh, D; Engstrom, LD; He, M; Hoffman, J; Hoffman, RL; Huang, Q; Kania, RS; Kath, JC; Lam, H; Lam, JL; Le, PT; Lingardo, L; Liu, W; McTigue, M; Palmer, CL; Sach, NW; Smeal, T; Smith, GL; Stewart, AE; Timofeevski, S; Zhu, H; Zhu, J; Zou, HY; Edwards, MP

> <Date of publication>
6/12/2014

> <Date in BindingDB>
2/11/2015

> <Institution>
Pfizer Inc

> <Link to Ligand in BindingDB>
http://www.bindingdb.org/bind/chemsearch/marvin/MolStructure.jsp?monomerid=50448785

> <Link to Ligand-Target Pair in BindingDB>
http://www.bindingdb.org/jsp/dbsearch/PrimarySearch_ki.jsp?energyterm=kJ/mole&tag=pol&polymerid=5809&target=ALK+tyrosine+kinase+receptor&column=ki&startPg=0&Increment=50&submit=Search

> <Link to Ligand-Target Pair in BindingDB>
http://www.bindingdb.org/jsp/dbsearch/PrimarySearch_ki.jsp?energyterm=kJ/mole&tag=r21&monomerid=50448785&enzyme=ALK+tyrosine+kinase+receptor&column=ki&startPg=0&Increment=50&submit=Search

> <Ligand HET ID in PDB>


> <PDB ID(s) for Ligand-Target Complex>


> <PubChem CID of Ligand>
72710568

> <PubChem SID of Ligand>
194946681

> <ChEBI ID of Ligand>


> <ChEMBL ID of Ligand>
CHEMBL3128069

> <DrugBank ID of Ligand>


> <IUPHAR_GRAC ID of Ligand>


> <KEGG ID of Ligand>


> <ZINC ID of Ligand>


> <Number of Protein Chains in Target (bigger than 1 implies a multichain complex)>
1

> <BindingDB Target Chain Sequence>
MGAIGLLWLLPLLLSTAAVGSGMGTGQRAGSPAAGPPLQPREPLSYSRLQRKSLAVDFVVPSLFRVYARDLLLPPSSSELKAGRPEARGSLALDCAPLLRLLGPAPGVSWTAGSPAPAEARTLSRVLKGGSVRKLRRAKQLVLELGEEAILEGCVGPPGEAAVGLLQFNLSELFSWWIRQGEGRLRIRLMPEKKASEVGREGRLSAAIRASQPRLLFQIFGTGHSSLESPTNMPSPSPDYFTWNLTWIMKDSFPFLSHRSRYGLECSFDFPCELEYSPPLHDLRNQSWSWRRIPSEEASQMDLLDGPGAERSKEMPRGSFLLLNTSADSKHTILSPWMRSSSEHCTLAVSVHRHLQPSGRYIAQLLPHNEAAREILLMPTPGKHGWTVLQGRIGRPDNPFRVALEYISSGNRSLSAVDFFALKNCSEGTSPGSKMALQSSFTCWNGTVLQLGQACDFHQDCAQGEDESQMCRKLPVGFYCNFEDGFCGWTQGTLSPHTPQWQVRTLKDARFQDHQDHALLLSTTDVPASESATVTSATFPAPIKSSPCELRMSWLIRGVLRGNVSLVLVENKTGKEQGRMVWHVAAYEGLSLWQWMVLPLLDVSDRFWLQMVAWWGQGSRAIVAFDNISISLDCYLTISGEDKILQNTAPKSRNLFERNPNKELKPGENSPRQTPIFDPTVHWLFTTCGASGPHGPTQAQCNNAYQNSNLSVEVGSEGPLKGIQIWKVPATDTYSISGYGAAGGKGGKNTMMRSHGVSVLGIFNLEKDDMLYILVGQQGEDACPSTNQLIQKVCIGENNVIEEEIRVNRSVHEWAGGGGGGGGATYVFKMKDGVPVPLIIAAGGGGRAYGAKTDTFHPERLENNSSVLGLNGNSGAAGGGGGWNDNTSLLWAGKSLQEGATGGHSCPQAMKKWGWETRGGFGGGGGGCSSGGGGGGYIGGNAASNNDPEMDGEDGVSFISPLGILYTPALKVMEGHGEVNIKHYLNCSHCEVDECHMDPESHKVICFCDHGTVLAEDGVSCIVSPTPEPHLPLSLILSVVTSALVAALVLAFSGIMIVYRRKHQELQAMQMELQSPEYKLSKLRTSTIMTDYNPNYCFAGKTSSISDLKEVPRKNITLIRGLGHGAFGEVYEGQVSGMPNDPSPLQVAVKTLPEVCSEQDELDFLMEALIISKFNHQNIVRCIGVSLQSLPRFILLELMAGGDLKSFLRETRPRPSQPSSLAMLDLLHVARDIACGCQYLEENHFIHRDIAARNCLLTCPGPGRVAKIGDFGMARDIYRASYYRKGGCAMLPVKWMPPEAFMEGIFTSKTDTWSFGVLLWEIFSLGYMPYPSKSNQEVLEFVTSGGRMDPPKNCPGPVYRIMTQCWQHQPEDRPNFAIILERIEYCTQDPDVINTALPIEYGPLVEEEEKVPVRPKDPEGVPPLLVSQQAKREEERSPAAPPPLPTTSSGKAAKKPTAAEISVRVPRGPAVEGGHVNMAFSQSNPPSELHKVHGSRNKPTSLWNPTYGSWFTEKPTKKNNPIAKKEPHDRGNLGLEGSCTVPPNVATGRLPGASLLLEPSSLTANMKEVPLFRLRHFPCGNVNYGYQQQGLPLEAATAPGAGHYEDTILKSKNSMNQPGP

> <PDB ID(s) of Target Chain>
2XB7,2XBA,3AOX,5FTO,5FTQ,6E0R,6EBW,6EDL,6MX8,7JY4,7JYR,7JYS,7JYT,7LS0,7MZW,7MZY,7N00,7NX3,7NX4,8ARJ

> <UniProt (SwissProt) Recommended Name of Target Chain>
ALK tyrosine kinase receptor

> <UniProt (SwissProt) Entry Name of Target Chain>
ALK_HUMAN

> <UniProt (SwissProt) Primary ID of Target Chain>
Q9UM73

> <UniProt (SwissProt) Secondary ID(s) of Target Chain>
A6P4T4 A6P4V4 Q4ZFX9 Q53QQ6 Q53RZ4 Q59FI3 Q9Y4K6

> <UniProt (SwissProt) Alternative ID(s) of Target Chain>


> <UniProt (TrEMBL) Submitted Name of Target Chain>


> <UniProt (TrEMBL) Entry Name of Target Chain>


> <UniProt (TrEMBL) Primary ID of Target Chain>


> <UniProt (TrEMBL) Secondary ID(s) of Target Chain>


> <UniProt (TrEMBL) Alternative ID(s) of Target Chain>


$$$$

  SciTegic09261414532D

 29 32  0  0  0  0            999 V2000
    7.9716   -4.4172    0.0000 O   0  0
    7.2478   -4.8128    0.0000 C   0  0  1  0  0  0
    6.5432   -4.3838    0.0000 C   0  0
    6.5672   -3.5588    0.0000 C   0  0
    5.8635   -3.1299    0.0000 C   0  0
    5.1386   -3.5256    0.0000 C   0  0
    5.1219   -4.3547    0.0000 C   0  0
    5.8263   -4.7799    0.0000 C   0  0
    7.2923   -3.1654    0.0000 O   0  0
    7.9955   -3.5967    0.0000 C   0  0
    8.7206   -3.2032    0.0000 C   0  0
    4.3994   -4.7528    0.0000 F   0  0
   10.8451   -3.6581    0.0000 C   0  0
    8.6577   -4.8455    0.0000 C   0  0
   10.1075   -4.8802    0.0000 C   0  0
    8.6578   -5.6726    0.0000 C   0  0
    9.4020   -4.4506    0.0000 C   0  0
   10.0883   -5.7061    0.0000 C   0  0
    9.3633   -6.1022    0.0000 N   0  0
    7.9330   -6.0688    0.0000 N   0  0
   10.8299   -4.4840    0.0000 C   0  0
   11.6082   -4.7562    0.0000 C   0  0
   12.1077   -4.0999    0.0000 N   0  0
   11.6379   -3.4223    0.0000 N   0  0
   11.8463   -5.5452    0.0000 C   0  0
   12.0837   -6.3352    0.0000 N   0  0
   12.9325   -4.1182    0.0000 C   0  0
    6.8286   -5.5246    0.0000 C   0  0
    9.4239   -3.6344    0.0000 C   0  0
 14  1  1  0
  1  2  1  0
  2  3  1  0
  3  4  2  0
  4  5  1  0
  5  6  2  0
  6  7  1  0
  7  8  2  0
  8  3  1  0
  4  9  1  0
  9 10  1  0
 10 11  1  0
  7 12  1  0
 16 14  1  0
 14 17  2  0
 17 15  1  0
 15 18  2  0
 18 19  1  0
 16 19  2  0
 16 20  1  0
 15 21  1  0
 13 21  1  0
 21 22  2  0
 22 23  1  0
 23 24  1  0
 24 13  2  0
 25 26  3  0
 22 25  1  0
 23 27  1  0
  2 28  1  6
 11 29  1  0
 29 13  1  0
M  END
> <From>
www.bindingDB.org

> <BindingDB Reactant_set_id>
50103692

> <Ligand InChI>
InChI=1S/C21H20FN5O2/c1-12-15-9-14(22)5-6-18(15)28-7-3-4-16-20(17(10-23)27(2)26-16)13-8-19(29-12)21(24)25-11-13/h5-6,8-9,11-12H,3-4,7H2,1-2H3,(H2,24,25)/t12-/m1/s1

> <Ligand InChI Key>
HSBYECUDEOYBCG-GFCCVEGCSA-N

> <BindingDB MonomerID>
50018829

> <BindingDB Ligand Name>
CHEMBL3286819

> <Target Name>
ALK tyrosine kinase receptor

> <Target Source Organism According to Curator or DataSource>
Homo sapiens

> <Ki (nM)>


> <IC50 (nM)>
 0.900000

> <Kd (nM)>


> <EC50 (nM)>


> <kon (M-1-s-1)>


> <koff (s-1)>


> <pH>


> <Temp C>


> <Curation/DataSource>
ChEMBL

> <Article DOI>
10.1021/jm500261q

> <BindingDB Entry DOI>
10.7270/Q2K35W68

> <PMID>
24819116

> <PubChem AID>


> <Patent Number>


> <Authors>
Johnson, TW; Richardson, PF; Bailey, S; Brooun, A; Burke, BJ; Collins, MR; Cui, JJ; Deal, JG; Deng, YL; Dinh, D; Engstrom, LD; He, M; Hoffman, J; Hoffman, RL; Huang, Q; Kania, RS; Kath, JC; Lam, H; Lam, JL; Le, PT; Lingardo, L; Liu, W; McTigue, M; Palmer, CL; Sach, NW; Smeal, T; Smith, GL; Stewart, AE; Timofeevski, S; Zhu, H; Zhu, J; Zou, HY; Edwards, MP

> <Date of publication>
6/12/2014

> <Date in BindingDB>
2/11/2015

> <Institution>
Pfizer Inc

> <Link to Ligand in BindingDB>
http://www.bindingdb.org/bind/chemsearch/marvin/MolStructure.jsp?monomerid=50018829

> <Link to Ligand-Target Pair in BindingDB>
http://www.bindingdb.org/jsp/dbsearch/PrimarySearch_ki.jsp?energyterm=kJ/mole&tag=pol&polymerid=5809&target=ALK+tyrosine+kinase+receptor&column=ki&startPg=0&Increment=50&submit=Search

> <Link to Ligand-Target Pair in BindingDB>
http://www.bindingdb.org/jsp/dbsearch/PrimarySearch_ki.jsp?energyterm=kJ/mole&tag=r21&monomerid=50018829&enzyme=ALK+tyrosine+kinase+receptor&column=ki&startPg=0&Increment=50&submit=Search

> <Ligand HET ID in PDB>


> <PDB ID(s) for Ligand-Target Complex>


> <PubChem CID of Ligand>
90644197

> <PubChem SID of Ligand>
103929882

> <ChEBI ID of Ligand>


> <ChEMBL ID of Ligand>
CHEMBL3286819

> <DrugBank ID of Ligand>


> <IUPHAR_GRAC ID of Ligand>


> <KEGG ID of Ligand>


> <ZINC ID of Ligand>
ZINC33891501

> <Number of Protein Chains in Target (bigger than 1 implies a multichain complex)>
1

> <BindingDB Target Chain Sequence>
MGAIGLLWLLPLLLSTAAVGSGMGTGQRAGSPAAGPPLQPREPLSYSRLQRKSLAVDFVVPSLFRVYARDLLLPPSSSELKAGRPEARGSLALDCAPLLRLLGPAPGVSWTAGSPAPAEARTLSRVLKGGSVRKLRRAKQLVLELGEEAILEGCVGPPGEAAVGLLQFNLSELFSWWIRQGEGRLRIRLMPEKKASEVGREGRLSAAIRASQPRLLFQIFGTGHSSLESPTNMPSPSPDYFTWNLTWIMKDSFPFLSHRSRYGLECSFDFPCELEYSPPLHDLRNQSWSWRRIPSEEASQMDLLDGPGAERSKEMPRGSFLLLNTSADSKHTILSPWMRSSSEHCTLAVSVHRHLQPSGRYIAQLLPHNEAAREILLMPTPGKHGWTVLQGRIGRPDNPFRVALEYISSGNRSLSAVDFFALKNCSEGTSPGSKMALQSSFTCWNGTVLQLGQACDFHQDCAQGEDESQMCRKLPVGFYCNFEDGFCGWTQGTLSPHTPQWQVRTLKDARFQDHQDHALLLSTTDVPASESATVTSATFPAPIKSSPCELRMSWLIRGVLRGNVSLVLVENKTGKEQGRMVWHVAAYEGLSLWQWMVLPLLDVSDRFWLQMVAWWGQGSRAIVAFDNISISLDCYLTISGEDKILQNTAPKSRNLFERNPNKELKPGENSPRQTPIFDPTVHWLFTTCGASGPHGPTQAQCNNAYQNSNLSVEVGSEGPLKGIQIWKVPATDTYSISGYGAAGGKGGKNTMMRSHGVSVLGIFNLEKDDMLYILVGQQGEDACPSTNQLIQKVCIGENNVIEEEIRVNRSVHEWAGGGGGGGGATYVFKMKDGVPVPLIIAAGGGGRAYGAKTDTFHPERLENNSSVLGLNGNSGAAGGGGGWNDNTSLLWAGKSLQEGATGGHSCPQAMKKWGWETRGGFGGGGGGCSSGGGGGGYIGGNAASNNDPEMDGEDGVSFISPLGILYTPALKVMEGHGEVNIKHYLNCSHCEVDECHMDPESHKVICFCDHGTVLAEDGVSCIVSPTPEPHLPLSLILSVVTSALVAALVLAFSGIMIVYRRKHQELQAMQMELQSPEYKLSKLRTSTIMTDYNPNYCFAGKTSSISDLKEVPRKNITLIRGLGHGAFGEVYEGQVSGMPNDPSPLQVAVKTLPEVCSEQDELDFLMEALIISKFNHQNIVRCIGVSLQSLPRFILLELMAGGDLKSFLRETRPRPSQPSSLAMLDLLHVARDIACGCQYLEENHFIHRDIAARNCLLTCPGPGRVAKIGDFGMARDIYRASYYRKGGCAMLPVKWMPPEAFMEGIFTSKTDTWSFGVLLWEIFSLGYMPYPSKSNQEVLEFVTSGGRMDPPKNCPGPVYRIMTQCWQHQPEDRPNFAIILERIEYCTQDPDVINTALPIEYGPLVEEEEKVPVRPKDPEGVPPLLVSQQAKREEERSPAAPPPLPTTSSGKAAKKPTAAEISVRVPRGPAVEGGHVNMAFSQSNPPSELHKVHGSRNKPTSLWNPTYGSWFTEKPTKKNNPIAKKEPHDRGNLGLEGSCTVPPNVATGRLPGASLLLEPSSLTANMKEVPLFRLRHFPCGNVNYGYQQQGLPLEAATAPGAGHYEDTILKSKNSMNQPGP

> <PDB ID(s) of Target Chain>
2XB7,2XBA,3AOX,5FTO,5FTQ,6E0R,6EBW,6EDL,6MX8,7JY4,7JYR,7JYS,7JYT,7LS0,7MZW,7MZY,7N00,7NX3,7NX4,8ARJ

> <UniProt (SwissProt) Recommended Name of Target Chain>
ALK tyrosine kinase receptor

> <UniProt (SwissProt) Entry Name of Target Chain>
ALK_HUMAN

> <UniProt (SwissProt) Primary ID of Target Chain>
Q9UM73

> <UniProt (SwissProt) Secondary ID(s) of Target Chain>
A6P4T4 A6P4V4 Q4ZFX9 Q53QQ6 Q53RZ4 Q59FI3 Q9Y4K6

> <UniProt (SwissProt) Alternative ID(s) of Target Chain>


> <UniProt (TrEMBL) Submitted Name of Target Chain>


> <UniProt (TrEMBL) Entry Name of Target Chain>


> <UniProt (TrEMBL) Primary ID of Target Chain>


> <UniProt (TrEMBL) Secondary ID(s) of Target Chain>


> <UniProt (TrEMBL) Alternative ID(s) of Target Chain>


$$$$

  SciTegic09261414532D

 28 31  0  0  0  0            999 V2000
    7.8967   -4.3757    0.0000 O   0  0
    7.1797   -4.7676    0.0000 C   0  0  1  0  0  0
    6.4817   -4.3426    0.0000 C   0  0
    6.5055   -3.5254    0.0000 C   0  0
    5.8084   -3.1005    0.0000 C   0  0
    5.0903   -3.4925    0.0000 C   0  0
    5.0738   -4.3138    0.0000 C   0  0
    5.7716   -4.7350    0.0000 C   0  0
    7.2238   -3.1357    0.0000 O   0  0
    7.9204   -3.5629    0.0000 C   0  0
    8.6387   -3.1731    0.0000 C   0  0
    4.3581   -4.7082    0.0000 F   0  0
   10.7432   -3.6237    0.0000 C   0  0
    8.5764   -4.8000    0.0000 C   0  0
   10.0126   -4.8344    0.0000 C   0  0
    8.5765   -5.6193    0.0000 C   0  0
    9.3137   -4.4088    0.0000 C   0  0
    9.9935   -5.6525    0.0000 C   0  0
    9.2754   -6.0449    0.0000 N   0  0
    7.8585   -6.0118    0.0000 N   0  0
   10.7282   -4.4419    0.0000 C   0  0
   11.4992   -4.7115    0.0000 C   0  0
   11.9940   -4.0614    0.0000 N   0  0
   11.5286   -3.3902    0.0000 N   0  0
   11.7350   -5.4931    0.0000 C   0  0
   11.9702   -6.2757    0.0000 N   0  0
   12.8110   -4.0795    0.0000 C   0  0
    6.7645   -5.4727    0.0000 C   0  0
 14  1  1  0
  1  2  1  0
  2  3  1  0
  3  4  2  0
  4  5  1  0
  5  6  2  0
  6  7  1  0
  7  8  2  0
  8  3  1  0
  4  9  1  0
  9 10  1  0
 10 11  1  0
  7 12  1  0
 16 14  1  0
 14 17  2  0
 17 15  1  0
 15 18  2  0
 18 19  1  0
 16 19  2  0
 16 20  1  0
 15 21  1  0
 13 21  1  0
 21 22  2  0
 22 23  1  0
 23 24  1  0
 24 13  2  0
 25 26  3  0
 22 25  1  0
 13 11  1  0
 23 27  1  0
  2 28  1  6
M  END
> <From>
www.bindingDB.org

> <BindingDB Reactant_set_id>
50103691

> <Ligand InChI>
InChI=1S/C20H18FN5O2/c1-11-14-8-13(21)3-4-17(14)27-6-5-15-19(16(9-22)26(2)25-15)12-7-18(28-11)20(23)24-10-12/h3-4,7-8,10-11H,5-6H2,1-2H3,(H2,23,24)/t11-/m1/s1

> <Ligand InChI Key>
IEZBZICPLSCIAC-LLVKDONJSA-N

> <BindingDB MonomerID>
50018828

> <BindingDB Ligand Name>
CHEMBL3286818

> <Target Name>
ALK tyrosine kinase receptor

> <Target Source Organism According to Curator or DataSource>
Homo sapiens

> <Ki (nM)>


> <IC50 (nM)>
 1.000000

> <Kd (nM)>


> <EC50 (nM)>


> <kon (M-1-s-1)>


> <koff (s-1)>


> <pH>


> <Temp C>


> <Curation/DataSource>
ChEMBL

> <Article DOI>
10.1021/jm500261q

> <BindingDB Entry DOI>
10.7270/Q2K35W68

> <PMID>
24819116

> <PubChem AID>


> <Patent Number>


> <Authors>
Johnson, TW; Richardson, PF; Bailey, S; Brooun, A; Burke, BJ; Collins, MR; Cui, JJ; Deal, JG; Deng, YL; Dinh, D; Engstrom, LD; He, M; Hoffman, J; Hoffman, RL; Huang, Q; Kania, RS; Kath, JC; Lam, H; Lam, JL; Le, PT; Lingardo, L; Liu, W; McTigue, M; Palmer, CL; Sach, NW; Smeal, T; Smith, GL; Stewart, AE; Timofeevski, S; Zhu, H; Zhu, J; Zou, HY; Edwards, MP

> <Date of publication>
6/12/2014

> <Date in BindingDB>
2/11/2015

> <Institution>
Pfizer Inc

> <Link to Ligand in BindingDB>
http://www.bindingdb.org/bind/chemsearch/marvin/MolStructure.jsp?monomerid=50018828

> <Link to Ligand-Target Pair in BindingDB>
http://www.bindingdb.org/jsp/dbsearch/PrimarySearch_ki.jsp?energyterm=kJ/mole&tag=pol&polymerid=5809&target=ALK+tyrosine+kinase+receptor&column=ki&startPg=0&Increment=50&submit=Search

> <Link to Ligand-Target Pair in BindingDB>
http://www.bindingdb.org/jsp/dbsearch/PrimarySearch_ki.jsp?energyterm=kJ/mole&tag=r21&monomerid=50018828&enzyme=ALK+tyrosine+kinase+receptor&column=ki&startPg=0&Increment=50&submit=Search

> <Ligand HET ID in PDB>


> <PDB ID(s) for Ligand-Target Complex>


> <PubChem CID of Ligand>
90644196

> <PubChem SID of Ligand>
103929881

> <ChEBI ID of Ligand>


> <ChEMBL ID of Ligand>
CHEMBL3286818

> <DrugBank ID of Ligand>


> <IUPHAR_GRAC ID of Ligand>


> <KEGG ID of Ligand>


> <ZINC ID of Ligand>
ZINC33891514

> <Number of Protein Chains in Target (bigger than 1 implies a multichain complex)>
1

> <BindingDB Target Chain Sequence>
MGAIGLLWLLPLLLSTAAVGSGMGTGQRAGSPAAGPPLQPREPLSYSRLQRKSLAVDFVVPSLFRVYARDLLLPPSSSELKAGRPEARGSLALDCAPLLRLLGPAPGVSWTAGSPAPAEARTLSRVLKGGSVRKLRRAKQLVLELGEEAILEGCVGPPGEAAVGLLQFNLSELFSWWIRQGEGRLRIRLMPEKKASEVGREGRLSAAIRASQPRLLFQIFGTGHSSLESPTNMPSPSPDYFTWNLTWIMKDSFPFLSHRSRYGLECSFDFPCELEYSPPLHDLRNQSWSWRRIPSEEASQMDLLDGPGAERSKEMPRGSFLLLNTSADSKHTILSPWMRSSSEHCTLAVSVHRHLQPSGRYIAQLLPHNEAAREILLMPTPGKHGWTVLQGRIGRPDNPFRVALEYISSGNRSLSAVDFFALKNCSEGTSPGSKMALQSSFTCWNGTVLQLGQACDFHQDCAQGEDESQMCRKLPVGFYCNFEDGFCGWTQGTLSPHTPQWQVRTLKDARFQDHQDHALLLSTTDVPASESATVTSATFPAPIKSSPCELRMSWLIRGVLRGNVSLVLVENKTGKEQGRMVWHVAAYEGLSLWQWMVLPLLDVSDRFWLQMVAWWGQGSRAIVAFDNISISLDCYLTISGEDKILQNTAPKSRNLFERNPNKELKPGENSPRQTPIFDPTVHWLFTTCGASGPHGPTQAQCNNAYQNSNLSVEVGSEGPLKGIQIWKVPATDTYSISGYGAAGGKGGKNTMMRSHGVSVLGIFNLEKDDMLYILVGQQGEDACPSTNQLIQKVCIGENNVIEEEIRVNRSVHEWAGGGGGGGGATYVFKMKDGVPVPLIIAAGGGGRAYGAKTDTFHPERLENNSSVLGLNGNSGAAGGGGGWNDNTSLLWAGKSLQEGATGGHSCPQAMKKWGWETRGGFGGGGGGCSSGGGGGGYIGGNAASNNDPEMDGEDGVSFISPLGILYTPALKVMEGHGEVNIKHYLNCSHCEVDECHMDPESHKVICFCDHGTVLAEDGVSCIVSPTPEPHLPLSLILSVVTSALVAALVLAFSGIMIVYRRKHQELQAMQMELQSPEYKLSKLRTSTIMTDYNPNYCFAGKTSSISDLKEVPRKNITLIRGLGHGAFGEVYEGQVSGMPNDPSPLQVAVKTLPEVCSEQDELDFLMEALIISKFNHQNIVRCIGVSLQSLPRFILLELMAGGDLKSFLRETRPRPSQPSSLAMLDLLHVARDIACGCQYLEENHFIHRDIAARNCLLTCPGPGRVAKIGDFGMARDIYRASYYRKGGCAMLPVKWMPPEAFMEGIFTSKTDTWSFGVLLWEIFSLGYMPYPSKSNQEVLEFVTSGGRMDPPKNCPGPVYRIMTQCWQHQPEDRPNFAIILERIEYCTQDPDVINTALPIEYGPLVEEEEKVPVRPKDPEGVPPLLVSQQAKREEERSPAAPPPLPTTSSGKAAKKPTAAEISVRVPRGPAVEGGHVNMAFSQSNPPSELHKVHGSRNKPTSLWNPTYGSWFTEKPTKKNNPIAKKEPHDRGNLGLEGSCTVPPNVATGRLPGASLLLEPSSLTANMKEVPLFRLRHFPCGNVNYGYQQQGLPLEAATAPGAGHYEDTILKSKNSMNQPGP

> <PDB ID(s) of Target Chain>
2XB7,2XBA,3AOX,5FTO,5FTQ,6E0R,6EBW,6EDL,6MX8,7JY4,7JYR,7JYS,7JYT,7LS0,7MZW,7MZY,7N00,7NX3,7NX4,8ARJ

> <UniProt (SwissProt) Recommended Name of Target Chain>
ALK tyrosine kinase receptor

> <UniProt (SwissProt) Entry Name of Target Chain>
ALK_HUMAN

> <UniProt (SwissProt) Primary ID of Target Chain>
Q9UM73

> <UniProt (SwissProt) Secondary ID(s) of Target Chain>
A6P4T4 A6P4V4 Q4ZFX9 Q53QQ6 Q53RZ4 Q59FI3 Q9Y4K6

> <UniProt (SwissProt) Alternative ID(s) of Target Chain>


> <UniProt (TrEMBL) Submitted Name of Target Chain>


> <UniProt (TrEMBL) Entry Name of Target Chain>


> <UniProt (TrEMBL) Primary ID of Target Chain>


> <UniProt (TrEMBL) Secondary ID(s) of Target Chain>


> <UniProt (TrEMBL) Alternative ID(s) of Target Chain>


$$$$

  SciTegic09261414532D

 30 33  0  0  0  0            999 V2000
   15.5386   -5.1488    0.0000 O   0  0
   14.8183   -5.5433    0.0000 C   0  0  1  0  0  0
   14.1133   -5.1148    0.0000 C   0  0
   14.1378   -4.2915    0.0000 C   0  0
   13.4336   -3.8630    0.0000 C   0  0
   12.7123   -4.2576    0.0000 C   0  0
   12.6952   -5.0851    0.0000 C   0  0
   13.4001   -5.5098    0.0000 C   0  0
   14.8637   -3.8992    0.0000 C   0  0
   11.9721   -5.4822    0.0000 F   0  0
   18.4105   -4.3883    0.0000 C   0  0
   16.2248   -5.5766    0.0000 C   0  0
   17.6719   -5.6120    0.0000 C   0  0
   16.2249   -6.4022    0.0000 C   0  0
   16.9702   -5.1828    0.0000 C   0  0
   17.6523   -6.4363    0.0000 C   0  0
   16.9309   -6.8314    0.0000 N   0  0
   15.4994   -6.7973    0.0000 N   0  0
   18.3950   -5.2168    0.0000 C   0  0
   19.1710   -5.4856    0.0000 C   0  0
   19.6711   -4.8299    0.0000 N   0  0
   19.2011   -4.1567    0.0000 N   0  0
   14.3999   -6.2556    0.0000 C   0  0
   15.5793   -4.3397    0.0000 O   0  0
   14.8873   -3.0593    0.0000 N   0  0
   15.6266   -2.6597    0.0000 C   0  0
   14.1716   -2.6188    0.0000 C   0  0
   20.5114   -4.8476    0.0000 C   0  0
   19.4137   -6.2884    0.0000 C   0  0
   19.6562   -7.0930    0.0000 N   0  0
 12  1  1  0
  1  2  1  0
  2  3  1  0
  3  4  2  0
  4  5  1  0
  5  6  2  0
  6  7  1  0
  7  8  2  0
  8  3  1  0
  4  9  1  0
  7 10  1  0
 14 12  1  0
 12 15  2  0
 15 13  1  0
 13 16  2  0
 16 17  1  0
 14 17  2  0
 14 18  1  0
 13 19  1  0
 11 19  1  0
 19 20  2  0
 20 21  1  0
 21 22  1  0
 22 11  2  0
  2 23  1  6
  9 24  2  0
  9 25  1  0
 25 26  1  0
 25 27  1  0
 26 11  1  0
 21 28  1  0
 29 30  3  0
 20 29  1  0
M  END
> <From>
www.bindingDB.org

> <BindingDB Reactant_set_id>
50103547

> <Ligand InChI>
InChI=1S/C21H19FN6O2/c1-11-15-7-13(22)4-5-14(15)21(29)27(2)10-16-19(17(8-23)28(3)26-16)12-6-18(30-11)20(24)25-9-12/h4-7,9,11H,10H2,1-3H3,(H2,24,25)/t11-/m1/s1

> <Ligand InChI Key>
IIXWYSCJSQVBQM-LLVKDONJSA-N

> <BindingDB MonomerID>
50018830

> <BindingDB Ligand Name>
CHEMBL3286830::US10543199, Compound PF-06463922::US10780082, Compound PF-06463922::US11517561, Compound PF-06463922

> <Target Name>
ALK tyrosine kinase receptor

> <Target Source Organism According to Curator or DataSource>
Homo sapiens

> <Ki (nM)>


> <IC50 (nM)>
 1.3

> <Kd (nM)>


> <EC50 (nM)>


> <kon (M-1-s-1)>


> <koff (s-1)>


> <pH>


> <Temp C>


> <Curation/DataSource>
ChEMBL

> <Article DOI>
10.1021/jm500261q

> <BindingDB Entry DOI>
10.7270/Q2K35W68

> <PMID>
24819116

> <PubChem AID>


> <Patent Number>


> <Authors>
Johnson, TW; Richardson, PF; Bailey, S; Brooun, A; Burke, BJ; Collins, MR; Cui, JJ; Deal, JG; Deng, YL; Dinh, D; Engstrom, LD; He, M; Hoffman, J; Hoffman, RL; Huang, Q; Kania, RS; Kath, JC; Lam, H; Lam, JL; Le, PT; Lingardo, L; Liu, W; McTigue, M; Palmer, CL; Sach, NW; Smeal, T; Smith, GL; Stewart, AE; Timofeevski, S; Zhu, H; Zhu, J; Zou, HY; Edwards, MP

> <Date of publication>
6/12/2014

> <Date in BindingDB>
2/11/2015

> <Institution>
Pfizer Inc

> <Link to Ligand in BindingDB>
http://www.bindingdb.org/bind/chemsearch/marvin/MolStructure.jsp?monomerid=50018830

> <Link to Ligand-Target Pair in BindingDB>
http://www.bindingdb.org/jsp/dbsearch/PrimarySearch_ki.jsp?energyterm=kJ/mole&tag=pol&polymerid=5809&target=ALK+tyrosine+kinase+receptor&column=ki&startPg=0&Increment=50&submit=Search

> <Link to Ligand-Target Pair in BindingDB>
http://www.bindingdb.org/jsp/dbsearch/PrimarySearch_ki.jsp?energyterm=kJ/mole&tag=r21&monomerid=50018830&enzyme=ALK+tyrosine+kinase+receptor&column=ki&startPg=0&Increment=50&submit=Search

> <Ligand HET ID in PDB>
53P

> <PDB ID(s) for Ligand-Target Complex>


> <PubChem CID of Ligand>
71731823

> <PubChem SID of Ligand>
103929883

> <ChEBI ID of Ligand>


> <ChEMBL ID of Ligand>
CHEMBL3286830

> <DrugBank ID of Ligand>


> <IUPHAR_GRAC ID of Ligand>


> <KEGG ID of Ligand>


> <ZINC ID of Ligand>
ZINC33891516

> <Number of Protein Chains in Target (bigger than 1 implies a multichain complex)>
1

> <BindingDB Target Chain Sequence>
MGAIGLLWLLPLLLSTAAVGSGMGTGQRAGSPAAGPPLQPREPLSYSRLQRKSLAVDFVVPSLFRVYARDLLLPPSSSELKAGRPEARGSLALDCAPLLRLLGPAPGVSWTAGSPAPAEARTLSRVLKGGSVRKLRRAKQLVLELGEEAILEGCVGPPGEAAVGLLQFNLSELFSWWIRQGEGRLRIRLMPEKKASEVGREGRLSAAIRASQPRLLFQIFGTGHSSLESPTNMPSPSPDYFTWNLTWIMKDSFPFLSHRSRYGLECSFDFPCELEYSPPLHDLRNQSWSWRRIPSEEASQMDLLDGPGAERSKEMPRGSFLLLNTSADSKHTILSPWMRSSSEHCTLAVSVHRHLQPSGRYIAQLLPHNEAAREILLMPTPGKHGWTVLQGRIGRPDNPFRVALEYISSGNRSLSAVDFFALKNCSEGTSPGSKMALQSSFTCWNGTVLQLGQACDFHQDCAQGEDESQMCRKLPVGFYCNFEDGFCGWTQGTLSPHTPQWQVRTLKDARFQDHQDHALLLSTTDVPASESATVTSATFPAPIKSSPCELRMSWLIRGVLRGNVSLVLVENKTGKEQGRMVWHVAAYEGLSLWQWMVLPLLDVSDRFWLQMVAWWGQGSRAIVAFDNISISLDCYLTISGEDKILQNTAPKSRNLFERNPNKELKPGENSPRQTPIFDPTVHWLFTTCGASGPHGPTQAQCNNAYQNSNLSVEVGSEGPLKGIQIWKVPATDTYSISGYGAAGGKGGKNTMMRSHGVSVLGIFNLEKDDMLYILVGQQGEDACPSTNQLIQKVCIGENNVIEEEIRVNRSVHEWAGGGGGGGGATYVFKMKDGVPVPLIIAAGGGGRAYGAKTDTFHPERLENNSSVLGLNGNSGAAGGGGGWNDNTSLLWAGKSLQEGATGGHSCPQAMKKWGWETRGGFGGGGGGCSSGGGGGGYIGGNAASNNDPEMDGEDGVSFISPLGILYTPALKVMEGHGEVNIKHYLNCSHCEVDECHMDPESHKVICFCDHGTVLAEDGVSCIVSPTPEPHLPLSLILSVVTSALVAALVLAFSGIMIVYRRKHQELQAMQMELQSPEYKLSKLRTSTIMTDYNPNYCFAGKTSSISDLKEVPRKNITLIRGLGHGAFGEVYEGQVSGMPNDPSPLQVAVKTLPEVCSEQDELDFLMEALIISKFNHQNIVRCIGVSLQSLPRFILLELMAGGDLKSFLRETRPRPSQPSSLAMLDLLHVARDIACGCQYLEENHFIHRDIAARNCLLTCPGPGRVAKIGDFGMARDIYRASYYRKGGCAMLPVKWMPPEAFMEGIFTSKTDTWSFGVLLWEIFSLGYMPYPSKSNQEVLEFVTSGGRMDPPKNCPGPVYRIMTQCWQHQPEDRPNFAIILERIEYCTQDPDVINTALPIEYGPLVEEEEKVPVRPKDPEGVPPLLVSQQAKREEERSPAAPPPLPTTSSGKAAKKPTAAEISVRVPRGPAVEGGHVNMAFSQSNPPSELHKVHGSRNKPTSLWNPTYGSWFTEKPTKKNNPIAKKEPHDRGNLGLEGSCTVPPNVATGRLPGASLLLEPSSLTANMKEVPLFRLRHFPCGNVNYGYQQQGLPLEAATAPGAGHYEDTILKSKNSMNQPGP

> <PDB ID(s) of Target Chain>
2XB7,2XBA,3AOX,5FTO,5FTQ,6E0R,6EBW,6EDL,6MX8,7JY4,7JYR,7JYS,7JYT,7LS0,7MZW,7MZY,7N00,7NX3,7NX4,8ARJ

> <UniProt (SwissProt) Recommended Name of Target Chain>
ALK tyrosine kinase receptor

> <UniProt (SwissProt) Entry Name of Target Chain>
ALK_HUMAN

> <UniProt (SwissProt) Primary ID of Target Chain>
Q9UM73

> <UniProt (SwissProt) Secondary ID(s) of Target Chain>
A6P4T4 A6P4V4 Q4ZFX9 Q53QQ6 Q53RZ4 Q59FI3 Q9Y4K6

> <UniProt (SwissProt) Alternative ID(s) of Target Chain>


> <UniProt (TrEMBL) Submitted Name of Target Chain>


> <UniProt (TrEMBL) Entry Name of Target Chain>


> <UniProt (TrEMBL) Primary ID of Target Chain>


> <UniProt (TrEMBL) Secondary ID(s) of Target Chain>


> <UniProt (TrEMBL) Alternative ID(s) of Target Chain>


$$$$

  SciTegic09261414532D

 32 35  0  0  0  0            999 V2000
    9.5141   -4.2540    0.0000 S   0  0
    9.0957   -4.9560    0.0000 O   0  0
    9.9128   -4.9674    0.0000 O   0  0
    4.6404   -3.7483    0.0000 O   0  0
    3.9398   -4.1320    0.0000 C   0  0  1  0  0  0
    3.2542   -3.7153    0.0000 C   0  0
    3.2780   -2.9146    0.0000 C   0  0
    2.5933   -2.4979    0.0000 C   0  0
    1.8917   -2.8817    0.0000 C   0  0
    1.8752   -3.6864    0.0000 C   0  0
    2.5606   -4.0994    0.0000 C   0  0
    3.9839   -2.5331    0.0000 C   0  0
    1.1719   -4.0726    0.0000 F   0  0
    5.3076   -4.1644    0.0000 C   0  0
    6.7149   -4.1988    0.0000 C   0  0
    5.3078   -4.9672    0.0000 C   0  0
    6.0325   -3.7814    0.0000 C   0  0
    6.6958   -5.0003    0.0000 C   0  0
    5.9943   -5.3846    0.0000 N   0  0
    4.6021   -5.3515    0.0000 N   0  0
    4.6798   -2.9615    0.0000 O   0  0
    4.0069   -1.7163    0.0000 N   0  0
    4.7258   -1.3277    0.0000 C   0  0
    3.3110   -1.2879    0.0000 C   0  0
    3.5247   -4.8371    0.0000 C   0  0
    7.4317   -3.0087    0.0000 C   0  0
    7.4181   -3.8145    0.0000 C   0  0
    8.1081   -4.2274    0.0000 C   0  0
    8.8122   -3.8356    0.0000 C   0  0
    8.8219   -3.0267    0.0000 C   0  0
    8.1313   -2.6174    0.0000 C   0  0
   10.2274   -3.8553    0.0000 C   0  0
  2  1  2  0
  1  3  2  0
 14  4  1  0
  4  5  1  0
  5  6  1  0
  6  7  2  0
  7  8  1  0
  8  9  2  0
  9 10  1  0
 10 11  2  0
 11  6  1  0
  7 12  1  0
 10 13  1  0
 16 14  1  0
 14 17  2  0
 17 15  1  0
 15 18  2  0
 18 19  1  0
 16 19  2  0
 16 20  1  0
 15 27  1  0
 12 21  2  0
 12 22  1  0
 22 23  1  0
 22 24  1  0
 23 26  1  0
  5 25  1  6
 26 27  2  0
 27 28  1  0
 28 29  2  0
 29 30  1  0
 30 31  2  0
 31 26  1  0
 29  1  1  0
  1 32  1  0
M  END
> <From>
www.bindingDB.org

> <BindingDB Reactant_set_id>
50103699

> <Ligand InChI>
InChI=1S/C23H22FN3O4S/c1-13-19-9-16(24)5-7-18(19)23(28)27(2)12-14-4-6-17(32(3,29)30)10-20(14)15-8-21(31-13)22(25)26-11-15/h4-11,13H,12H2,1-3H3,(H2,25,26)/t13-/m1/s1

> <Ligand InChI Key>
OMIYERABHRFNAV-CYBMUJFWSA-N

> <BindingDB MonomerID>
50018837

> <BindingDB Ligand Name>
CHEMBL3286827

> <Target Name>
ALK tyrosine kinase receptor

> <Target Source Organism According to Curator or DataSource>
Homo sapiens

> <Ki (nM)>


> <IC50 (nM)>
 1.3

> <Kd (nM)>


> <EC50 (nM)>


> <kon (M-1-s-1)>


> <koff (s-1)>


> <pH>


> <Temp C>


> <Curation/DataSource>
ChEMBL

> <Article DOI>
10.1021/jm500261q

> <BindingDB Entry DOI>
10.7270/Q2K35W68

> <PMID>
24819116

> <PubChem AID>


> <Patent Number>


> <Authors>
Johnson, TW; Richardson, PF; Bailey, S; Brooun, A; Burke, BJ; Collins, MR; Cui, JJ; Deal, JG; Deng, YL; Dinh, D; Engstrom, LD; He, M; Hoffman, J; Hoffman, RL; Huang, Q; Kania, RS; Kath, JC; Lam, H; Lam, JL; Le, PT; Lingardo, L; Liu, W; McTigue, M; Palmer, CL; Sach, NW; Smeal, T; Smith, GL; Stewart, AE; Timofeevski, S; Zhu, H; Zhu, J; Zou, HY; Edwards, MP

> <Date of publication>
6/12/2014

> <Date in BindingDB>
2/11/2015

> <Institution>
Pfizer Inc

> <Link to Ligand in BindingDB>
http://www.bindingdb.org/bind/chemsearch/marvin/MolStructure.jsp?monomerid=50018837

> <Link to Ligand-Target Pair in BindingDB>
http://www.bindingdb.org/jsp/dbsearch/PrimarySearch_ki.jsp?energyterm=kJ/mole&tag=pol&polymerid=5809&target=ALK+tyrosine+kinase+receptor&column=ki&startPg=0&Increment=50&submit=Search

> <Link to Ligand-Target Pair in BindingDB>
http://www.bindingdb.org/jsp/dbsearch/PrimarySearch_ki.jsp?energyterm=kJ/mole&tag=r21&monomerid=50018837&enzyme=ALK+tyrosine+kinase+receptor&column=ki&startPg=0&Increment=50&submit=Search

> <Ligand HET ID in PDB>


> <PDB ID(s) for Ligand-Target Complex>


> <PubChem CID of Ligand>
89808124

> <PubChem SID of Ligand>
103929890

> <ChEBI ID of Ligand>


> <ChEMBL ID of Ligand>
CHEMBL3286827

> <DrugBank ID of Ligand>


> <IUPHAR_GRAC ID of Ligand>


> <KEGG ID of Ligand>


> <ZINC ID of Ligand>
ZINC33891497

> <Number of Protein Chains in Target (bigger than 1 implies a multichain complex)>
1

> <BindingDB Target Chain Sequence>
MGAIGLLWLLPLLLSTAAVGSGMGTGQRAGSPAAGPPLQPREPLSYSRLQRKSLAVDFVVPSLFRVYARDLLLPPSSSELKAGRPEARGSLALDCAPLLRLLGPAPGVSWTAGSPAPAEARTLSRVLKGGSVRKLRRAKQLVLELGEEAILEGCVGPPGEAAVGLLQFNLSELFSWWIRQGEGRLRIRLMPEKKASEVGREGRLSAAIRASQPRLLFQIFGTGHSSLESPTNMPSPSPDYFTWNLTWIMKDSFPFLSHRSRYGLECSFDFPCELEYSPPLHDLRNQSWSWRRIPSEEASQMDLLDGPGAERSKEMPRGSFLLLNTSADSKHTILSPWMRSSSEHCTLAVSVHRHLQPSGRYIAQLLPHNEAAREILLMPTPGKHGWTVLQGRIGRPDNPFRVALEYISSGNRSLSAVDFFALKNCSEGTSPGSKMALQSSFTCWNGTVLQLGQACDFHQDCAQGEDESQMCRKLPVGFYCNFEDGFCGWTQGTLSPHTPQWQVRTLKDARFQDHQDHALLLSTTDVPASESATVTSATFPAPIKSSPCELRMSWLIRGVLRGNVSLVLVENKTGKEQGRMVWHVAAYEGLSLWQWMVLPLLDVSDRFWLQMVAWWGQGSRAIVAFDNISISLDCYLTISGEDKILQNTAPKSRNLFERNPNKELKPGENSPRQTPIFDPTVHWLFTTCGASGPHGPTQAQCNNAYQNSNLSVEVGSEGPLKGIQIWKVPATDTYSISGYGAAGGKGGKNTMMRSHGVSVLGIFNLEKDDMLYILVGQQGEDACPSTNQLIQKVCIGENNVIEEEIRVNRSVHEWAGGGGGGGGATYVFKMKDGVPVPLIIAAGGGGRAYGAKTDTFHPERLENNSSVLGLNGNSGAAGGGGGWNDNTSLLWAGKSLQEGATGGHSCPQAMKKWGWETRGGFGGGGGGCSSGGGGGGYIGGNAASNNDPEMDGEDGVSFISPLGILYTPALKVMEGHGEVNIKHYLNCSHCEVDECHMDPESHKVICFCDHGTVLAEDGVSCIVSPTPEPHLPLSLILSVVTSALVAALVLAFSGIMIVYRRKHQELQAMQMELQSPEYKLSKLRTSTIMTDYNPNYCFAGKTSSISDLKEVPRKNITLIRGLGHGAFGEVYEGQVSGMPNDPSPLQVAVKTLPEVCSEQDELDFLMEALIISKFNHQNIVRCIGVSLQSLPRFILLELMAGGDLKSFLRETRPRPSQPSSLAMLDLLHVARDIACGCQYLEENHFIHRDIAARNCLLTCPGPGRVAKIGDFGMARDIYRASYYRKGGCAMLPVKWMPPEAFMEGIFTSKTDTWSFGVLLWEIFSLGYMPYPSKSNQEVLEFVTSGGRMDPPKNCPGPVYRIMTQCWQHQPEDRPNFAIILERIEYCTQDPDVINTALPIEYGPLVEEEEKVPVRPKDPEGVPPLLVSQQAKREEERSPAAPPPLPTTSSGKAAKKPTAAEISVRVPRGPAVEGGHVNMAFSQSNPPSELHKVHGSRNKPTSLWNPTYGSWFTEKPTKKNNPIAKKEPHDRGNLGLEGSCTVPPNVATGRLPGASLLLEPSSLTANMKEVPLFRLRHFPCGNVNYGYQQQGLPLEAATAPGAGHYEDTILKSKNSMNQPGP

> <PDB ID(s) of Target Chain>
2XB7,2XBA,3AOX,5FTO,5FTQ,6E0R,6EBW,6EDL,6MX8,7JY4,7JYR,7JYS,7JYT,7LS0,7MZW,7MZY,7N00,7NX3,7NX4,8ARJ

> <UniProt (SwissProt) Recommended Name of Target Chain>
ALK tyrosine kinase receptor

> <UniProt (SwissProt) Entry Name of Target Chain>
ALK_HUMAN

> <UniProt (SwissProt) Primary ID of Target Chain>
Q9UM73

> <UniProt (SwissProt) Secondary ID(s) of Target Chain>
A6P4T4 A6P4V4 Q4ZFX9 Q53QQ6 Q53RZ4 Q59FI3 Q9Y4K6

> <UniProt (SwissProt) Alternative ID(s) of Target Chain>


> <UniProt (TrEMBL) Submitted Name of Target Chain>


> <UniProt (TrEMBL) Entry Name of Target Chain>


> <UniProt (TrEMBL) Primary ID of Target Chain>


> <UniProt (TrEMBL) Secondary ID(s) of Target Chain>


> <UniProt (TrEMBL) Alternative ID(s) of Target Chain>


$$$$

  SciTegic09261414532D

 29 32  0  0  0  0            999 V2000
    4.9153   -4.1332    0.0000 O   0  0
    4.1943   -4.5280    0.0000 C   0  0  1  0  0  0
    3.4888   -4.0991    0.0000 C   0  0
    3.5133   -3.2753    0.0000 C   0  0
    2.8087   -2.8465    0.0000 C   0  0
    2.0868   -3.2413    0.0000 C   0  0
    2.0698   -4.0695    0.0000 C   0  0
    2.7751   -4.4945    0.0000 C   0  0
    4.2397   -2.8827    0.0000 C   0  0
    1.3461   -4.4669    0.0000 F   0  0
    7.7890   -3.3721    0.0000 C   0  0
    5.6018   -4.5613    0.0000 C   0  0
    7.0500   -4.5968    0.0000 C   0  0
    5.6020   -5.3875    0.0000 C   0  0
    6.3478   -4.1673    0.0000 N   0  0
    7.0303   -5.4215    0.0000 C   0  0
    6.3085   -5.8169    0.0000 N   0  0
    4.8758   -5.7828    0.0000 N   0  0
    7.7736   -4.2013    0.0000 C   0  0
    8.5501   -4.4702    0.0000 C   0  0
    9.0507   -3.8141    0.0000 N   0  0
    8.5802   -3.1403    0.0000 N   0  0
    8.7884   -5.2575    0.0000 C   0  0
    4.9558   -3.3235    0.0000 O   0  0
    4.2634   -2.0421    0.0000 N   0  0
    5.0031   -1.6423    0.0000 C   0  0
    3.5473   -1.6014    0.0000 C   0  0
    8.8592   -2.3470    0.0000 C   0  0
    3.7672   -5.2536    0.0000 C   0  0
 12  1  1  0
  1  2  1  0
  2  3  1  0
  3  4  2  0
  4  5  1  0
  5  6  2  0
  6  7  1  0
  7  8  2  0
  8  3  1  0
  4  9  1  0
  7 10  1  0
 14 12  1  0
 12 15  2  0
 15 13  1  0
 13 16  2  0
 16 17  1  0
 14 17  2  0
 14 18  1  0
 13 19  1  0
 11 19  2  0
 19 20  1  0
 20 21  2  0
 21 22  1  0
 22 11  1  0
 20 23  1  0
  9 24  2  0
  9 25  1  0
 25 26  1  0
 25 27  1  0
 26 11  1  0
 22 28  1  0
  2 29  1  6
M  END
> <From>
www.bindingDB.org

> <BindingDB Reactant_set_id>
50103577

> <Ligand InChI>
InChI=1S/C20H21FN6O2/c1-10-17-15-8-23-18(22)19(24-15)29-11(2)14-7-12(21)5-6-13(14)20(28)26(3)9-16(17)27(4)25-10/h5-8,11H,9H2,1-4H3,(H2,22,23)/t11-/m1/s1

> <Ligand InChI Key>
BOSKQVUEUWJLFT-LLVKDONJSA-N

> <BindingDB MonomerID>
50018833

> <BindingDB Ligand Name>
CHEMBL3286823

> <Target Name>
ALK tyrosine kinase receptor

> <Target Source Organism According to Curator or DataSource>
Homo sapiens

> <Ki (nM)>


> <IC50 (nM)>
 1.4

> <Kd (nM)>


> <EC50 (nM)>


> <kon (M-1-s-1)>


> <koff (s-1)>


> <pH>


> <Temp C>


> <Curation/DataSource>
ChEMBL

> <Article DOI>
10.1021/jm500261q

> <BindingDB Entry DOI>
10.7270/Q2K35W68

> <PMID>
24819116

> <PubChem AID>


> <Patent Number>


> <Authors>
Johnson, TW; Richardson, PF; Bailey, S; Brooun, A; Burke, BJ; Collins, MR; Cui, JJ; Deal, JG; Deng, YL; Dinh, D; Engstrom, LD; He, M; Hoffman, J; Hoffman, RL; Huang, Q; Kania, RS; Kath, JC; Lam, H; Lam, JL; Le, PT; Lingardo, L; Liu, W; McTigue, M; Palmer, CL; Sach, NW; Smeal, T; Smith, GL; Stewart, AE; Timofeevski, S; Zhu, H; Zhu, J; Zou, HY; Edwards, MP

> <Date of publication>
6/12/2014

> <Date in BindingDB>
2/11/2015

> <Institution>
Pfizer Inc

> <Link to Ligand in BindingDB>
http://www.bindingdb.org/bind/chemsearch/marvin/MolStructure.jsp?monomerid=50018833

> <Link to Ligand-Target Pair in BindingDB>
http://www.bindingdb.org/jsp/dbsearch/PrimarySearch_ki.jsp?energyterm=kJ/mole&tag=pol&polymerid=5809&target=ALK+tyrosine+kinase+receptor&column=ki&startPg=0&Increment=50&submit=Search

> <Link to Ligand-Target Pair in BindingDB>
http://www.bindingdb.org/jsp/dbsearch/PrimarySearch_ki.jsp?energyterm=kJ/mole&tag=r21&monomerid=50018833&enzyme=ALK+tyrosine+kinase+receptor&column=ki&startPg=0&Increment=50&submit=Search

> <Ligand HET ID in PDB>


> <PDB ID(s) for Ligand-Target Complex>


> <PubChem CID of Ligand>
90644199

> <PubChem SID of Ligand>
103929886

> <ChEBI ID of Ligand>


> <ChEMBL ID of Ligand>
CHEMBL3286823

> <DrugBank ID of Ligand>


> <IUPHAR_GRAC ID of Ligand>


> <KEGG ID of Ligand>


> <ZINC ID of Ligand>
ZINC33891534

> <Number of Protein Chains in Target (bigger than 1 implies a multichain complex)>
1

> <BindingDB Target Chain Sequence>
MGAIGLLWLLPLLLSTAAVGSGMGTGQRAGSPAAGPPLQPREPLSYSRLQRKSLAVDFVVPSLFRVYARDLLLPPSSSELKAGRPEARGSLALDCAPLLRLLGPAPGVSWTAGSPAPAEARTLSRVLKGGSVRKLRRAKQLVLELGEEAILEGCVGPPGEAAVGLLQFNLSELFSWWIRQGEGRLRIRLMPEKKASEVGREGRLSAAIRASQPRLLFQIFGTGHSSLESPTNMPSPSPDYFTWNLTWIMKDSFPFLSHRSRYGLECSFDFPCELEYSPPLHDLRNQSWSWRRIPSEEASQMDLLDGPGAERSKEMPRGSFLLLNTSADSKHTILSPWMRSSSEHCTLAVSVHRHLQPSGRYIAQLLPHNEAAREILLMPTPGKHGWTVLQGRIGRPDNPFRVALEYISSGNRSLSAVDFFALKNCSEGTSPGSKMALQSSFTCWNGTVLQLGQACDFHQDCAQGEDESQMCRKLPVGFYCNFEDGFCGWTQGTLSPHTPQWQVRTLKDARFQDHQDHALLLSTTDVPASESATVTSATFPAPIKSSPCELRMSWLIRGVLRGNVSLVLVENKTGKEQGRMVWHVAAYEGLSLWQWMVLPLLDVSDRFWLQMVAWWGQGSRAIVAFDNISISLDCYLTISGEDKILQNTAPKSRNLFERNPNKELKPGENSPRQTPIFDPTVHWLFTTCGASGPHGPTQAQCNNAYQNSNLSVEVGSEGPLKGIQIWKVPATDTYSISGYGAAGGKGGKNTMMRSHGVSVLGIFNLEKDDMLYILVGQQGEDACPSTNQLIQKVCIGENNVIEEEIRVNRSVHEWAGGGGGGGGATYVFKMKDGVPVPLIIAAGGGGRAYGAKTDTFHPERLENNSSVLGLNGNSGAAGGGGGWNDNTSLLWAGKSLQEGATGGHSCPQAMKKWGWETRGGFGGGGGGCSSGGGGGGYIGGNAASNNDPEMDGEDGVSFISPLGILYTPALKVMEGHGEVNIKHYLNCSHCEVDECHMDPESHKVICFCDHGTVLAEDGVSCIVSPTPEPHLPLSLILSVVTSALVAALVLAFSGIMIVYRRKHQELQAMQMELQSPEYKLSKLRTSTIMTDYNPNYCFAGKTSSISDLKEVPRKNITLIRGLGHGAFGEVYEGQVSGMPNDPSPLQVAVKTLPEVCSEQDELDFLMEALIISKFNHQNIVRCIGVSLQSLPRFILLELMAGGDLKSFLRETRPRPSQPSSLAMLDLLHVARDIACGCQYLEENHFIHRDIAARNCLLTCPGPGRVAKIGDFGMARDIYRASYYRKGGCAMLPVKWMPPEAFMEGIFTSKTDTWSFGVLLWEIFSLGYMPYPSKSNQEVLEFVTSGGRMDPPKNCPGPVYRIMTQCWQHQPEDRPNFAIILERIEYCTQDPDVINTALPIEYGPLVEEEEKVPVRPKDPEGVPPLLVSQQAKREEERSPAAPPPLPTTSSGKAAKKPTAAEISVRVPRGPAVEGGHVNMAFSQSNPPSELHKVHGSRNKPTSLWNPTYGSWFTEKPTKKNNPIAKKEPHDRGNLGLEGSCTVPPNVATGRLPGASLLLEPSSLTANMKEVPLFRLRHFPCGNVNYGYQQQGLPLEAATAPGAGHYEDTILKSKNSMNQPGP

> <PDB ID(s) of Target Chain>
2XB7,2XBA,3AOX,5FTO,5FTQ,6E0R,6EBW,6EDL,6MX8,7JY4,7JYR,7JYS,7JYT,7LS0,7MZW,7MZY,7N00,7NX3,7NX4,8ARJ

> <UniProt (SwissProt) Recommended Name of Target Chain>
ALK tyrosine kinase receptor

> <UniProt (SwissProt) Entry Name of Target Chain>
ALK_HUMAN

> <UniProt (SwissProt) Primary ID of Target Chain>
Q9UM73

> <UniProt (SwissProt) Secondary ID(s) of Target Chain>
A6P4T4 A6P4V4 Q4ZFX9 Q53QQ6 Q53RZ4 Q59FI3 Q9Y4K6

> <UniProt (SwissProt) Alternative ID(s) of Target Chain>


> <UniProt (TrEMBL) Submitted Name of Target Chain>


> <UniProt (TrEMBL) Entry Name of Target Chain>


> <UniProt (TrEMBL) Primary ID of Target Chain>


> <UniProt (TrEMBL) Secondary ID(s) of Target Chain>


> <UniProt (TrEMBL) Alternative ID(s) of Target Chain>


$$$$

  SciTegic09261414532D

 30 33  0  0  0  0            999 V2000
   15.5386   -5.1488    0.0000 O   0  0
   14.8183   -5.5433    0.0000 C   0  0  1  0  0  0
   14.1133   -5.1148    0.0000 C   0  0
   14.1378   -4.2915    0.0000 C   0  0
   13.4336   -3.8630    0.0000 C   0  0
   12.7123   -4.2576    0.0000 C   0  0
   12.6952   -5.0851    0.0000 C   0  0
   13.4001   -5.5098    0.0000 C   0  0
   14.8637   -3.8992    0.0000 C   0  0
   11.9721   -5.4822    0.0000 F   0  0
   18.4105   -4.3883    0.0000 C   0  0
   16.2248   -5.5766    0.0000 C   0  0
   17.6719   -5.6120    0.0000 C   0  0
   16.2249   -6.4022    0.0000 C   0  0
   16.9702   -5.1828    0.0000 C   0  0
   17.6523   -6.4363    0.0000 C   0  0
   16.9309   -6.8314    0.0000 N   0  0
   15.4994   -6.7973    0.0000 N   0  0
   18.3950   -5.2168    0.0000 C   0  0
   19.1710   -5.4856    0.0000 C   0  0
   19.6711   -4.8299    0.0000 N   0  0
   19.2011   -4.1567    0.0000 N   0  0
   14.3999   -6.2556    0.0000 C   0  0
   15.5793   -4.3397    0.0000 O   0  0
   14.8873   -3.0593    0.0000 N   0  0
   15.6266   -2.6597    0.0000 C   0  0
   14.1716   -2.6188    0.0000 C   0  0
   20.5114   -4.8476    0.0000 C   0  0
   19.4137   -6.2884    0.0000 C   0  0
   19.6562   -7.0930    0.0000 N   0  0
 12  1  1  0
  1  2  1  0
  2  3  1  0
  3  4  2  0
  4  5  1  0
  5  6  2  0
  6  7  1  0
  7  8  2  0
  8  3  1  0
  4  9  1  0
  7 10  1  0
 14 12  1  0
 12 15  2  0
 15 13  1  0
 13 16  2  0
 16 17  1  0
 14 17  2  0
 14 18  1  0
 13 19  1  0
 11 19  1  0
 19 20  2  0
 20 21  1  0
 21 22  1  0
 22 11  2  0
  2 23  1  6
  9 24  2  0
  9 25  1  0
 25 26  1  0
 25 27  1  0
 26 11  1  0
 21 28  1  0
 29 30  3  0
 20 29  1  0
M  END
> <From>
www.bindingDB.org

> <BindingDB Reactant_set_id>
50103615

> <Ligand InChI>
InChI=1S/C21H19FN6O2/c1-11-15-7-13(22)4-5-14(15)21(29)27(2)10-16-19(17(8-23)28(3)26-16)12-6-18(30-11)20(24)25-9-12/h4-7,9,11H,10H2,1-3H3,(H2,24,25)/t11-/m1/s1

> <Ligand InChI Key>
IIXWYSCJSQVBQM-LLVKDONJSA-N

> <BindingDB MonomerID>
50018830

> <BindingDB Ligand Name>
CHEMBL3286830::US10543199, Compound PF-06463922::US10780082, Compound PF-06463922::US11517561, Compound PF-06463922

> <Target Name>
ALK tyrosine kinase receptor

> <Target Source Organism According to Curator or DataSource>
Homo sapiens

> <Ki (nM)>


> <IC50 (nM)>
 1.6

> <Kd (nM)>


> <EC50 (nM)>


> <kon (M-1-s-1)>


> <koff (s-1)>


> <pH>


> <Temp C>


> <Curation/DataSource>
ChEMBL

> <Article DOI>
10.1021/jm500261q

> <BindingDB Entry DOI>
10.7270/Q2K35W68

> <PMID>
24819116

> <PubChem AID>


> <Patent Number>


> <Authors>
Johnson, TW; Richardson, PF; Bailey, S; Brooun, A; Burke, BJ; Collins, MR; Cui, JJ; Deal, JG; Deng, YL; Dinh, D; Engstrom, LD; He, M; Hoffman, J; Hoffman, RL; Huang, Q; Kania, RS; Kath, JC; Lam, H; Lam, JL; Le, PT; Lingardo, L; Liu, W; McTigue, M; Palmer, CL; Sach, NW; Smeal, T; Smith, GL; Stewart, AE; Timofeevski, S; Zhu, H; Zhu, J; Zou, HY; Edwards, MP

> <Date of publication>
6/12/2014

> <Date in BindingDB>
2/11/2015

> <Institution>
Pfizer Inc

> <Link to Ligand in BindingDB>
http://www.bindingdb.org/bind/chemsearch/marvin/MolStructure.jsp?monomerid=50018830

> <Link to Ligand-Target Pair in BindingDB>
http://www.bindingdb.org/jsp/dbsearch/PrimarySearch_ki.jsp?energyterm=kJ/mole&tag=pol&polymerid=5809&target=ALK+tyrosine+kinase+receptor&column=ki&startPg=0&Increment=50&submit=Search

> <Link to Ligand-Target Pair in BindingDB>
http://www.bindingdb.org/jsp/dbsearch/PrimarySearch_ki.jsp?energyterm=kJ/mole&tag=r21&monomerid=50018830&enzyme=ALK+tyrosine+kinase+receptor&column=ki&startPg=0&Increment=50&submit=Search

> <Ligand HET ID in PDB>
53P

> <PDB ID(s) for Ligand-Target Complex>


> <PubChem CID of Ligand>
71731823

> <PubChem SID of Ligand>
103929883

> <ChEBI ID of Ligand>


> <ChEMBL ID of Ligand>
CHEMBL3286830

> <DrugBank ID of Ligand>


> <IUPHAR_GRAC ID of Ligand>


> <KEGG ID of Ligand>


> <ZINC ID of Ligand>
ZINC33891516

> <Number of Protein Chains in Target (bigger than 1 implies a multichain complex)>
1

> <BindingDB Target Chain Sequence>
MGAIGLLWLLPLLLSTAAVGSGMGTGQRAGSPAAGPPLQPREPLSYSRLQRKSLAVDFVVPSLFRVYARDLLLPPSSSELKAGRPEARGSLALDCAPLLRLLGPAPGVSWTAGSPAPAEARTLSRVLKGGSVRKLRRAKQLVLELGEEAILEGCVGPPGEAAVGLLQFNLSELFSWWIRQGEGRLRIRLMPEKKASEVGREGRLSAAIRASQPRLLFQIFGTGHSSLESPTNMPSPSPDYFTWNLTWIMKDSFPFLSHRSRYGLECSFDFPCELEYSPPLHDLRNQSWSWRRIPSEEASQMDLLDGPGAERSKEMPRGSFLLLNTSADSKHTILSPWMRSSSEHCTLAVSVHRHLQPSGRYIAQLLPHNEAAREILLMPTPGKHGWTVLQGRIGRPDNPFRVALEYISSGNRSLSAVDFFALKNCSEGTSPGSKMALQSSFTCWNGTVLQLGQACDFHQDCAQGEDESQMCRKLPVGFYCNFEDGFCGWTQGTLSPHTPQWQVRTLKDARFQDHQDHALLLSTTDVPASESATVTSATFPAPIKSSPCELRMSWLIRGVLRGNVSLVLVENKTGKEQGRMVWHVAAYEGLSLWQWMVLPLLDVSDRFWLQMVAWWGQGSRAIVAFDNISISLDCYLTISGEDKILQNTAPKSRNLFERNPNKELKPGENSPRQTPIFDPTVHWLFTTCGASGPHGPTQAQCNNAYQNSNLSVEVGSEGPLKGIQIWKVPATDTYSISGYGAAGGKGGKNTMMRSHGVSVLGIFNLEKDDMLYILVGQQGEDACPSTNQLIQKVCIGENNVIEEEIRVNRSVHEWAGGGGGGGGATYVFKMKDGVPVPLIIAAGGGGRAYGAKTDTFHPERLENNSSVLGLNGNSGAAGGGGGWNDNTSLLWAGKSLQEGATGGHSCPQAMKKWGWETRGGFGGGGGGCSSGGGGGGYIGGNAASNNDPEMDGEDGVSFISPLGILYTPALKVMEGHGEVNIKHYLNCSHCEVDECHMDPESHKVICFCDHGTVLAEDGVSCIVSPTPEPHLPLSLILSVVTSALVAALVLAFSGIMIVYRRKHQELQAMQMELQSPEYKLSKLRTSTIMTDYNPNYCFAGKTSSISDLKEVPRKNITLIRGLGHGAFGEVYEGQVSGMPNDPSPLQVAVKTLPEVCSEQDELDFLMEALIISKFNHQNIVRCIGVSLQSLPRFILLELMAGGDLKSFLRETRPRPSQPSSLAMLDLLHVARDIACGCQYLEENHFIHRDIAARNCLLTCPGPGRVAKIGDFGMARDIYRASYYRKGGCAMLPVKWMPPEAFMEGIFTSKTDTWSFGVLLWEIFSLGYMPYPSKSNQEVLEFVTSGGRMDPPKNCPGPVYRIMTQCWQHQPEDRPNFAIILERIEYCTQDPDVINTALPIEYGPLVEEEEKVPVRPKDPEGVPPLLVSQQAKREEERSPAAPPPLPTTSSGKAAKKPTAAEISVRVPRGPAVEGGHVNMAFSQSNPPSELHKVHGSRNKPTSLWNPTYGSWFTEKPTKKNNPIAKKEPHDRGNLGLEGSCTVPPNVATGRLPGASLLLEPSSLTANMKEVPLFRLRHFPCGNVNYGYQQQGLPLEAATAPGAGHYEDTILKSKNSMNQPGP

> <PDB ID(s) of Target Chain>
2XB7,2XBA,3AOX,5FTO,5FTQ,6E0R,6EBW,6EDL,6MX8,7JY4,7JYR,7JYS,7JYT,7LS0,7MZW,7MZY,7N00,7NX3,7NX4,8ARJ

> <UniProt (SwissProt) Recommended Name of Target Chain>
ALK tyrosine kinase receptor

> <UniProt (SwissProt) Entry Name of Target Chain>
ALK_HUMAN

> <UniProt (SwissProt) Primary ID of Target Chain>
Q9UM73

> <UniProt (SwissProt) Secondary ID(s) of Target Chain>
A6P4T4 A6P4V4 Q4ZFX9 Q53QQ6 Q53RZ4 Q59FI3 Q9Y4K6

> <UniProt (SwissProt) Alternative ID(s) of Target Chain>


> <UniProt (TrEMBL) Submitted Name of Target Chain>


> <UniProt (TrEMBL) Entry Name of Target Chain>


> <UniProt (TrEMBL) Primary ID of Target Chain>


> <UniProt (TrEMBL) Secondary ID(s) of Target Chain>


> <UniProt (TrEMBL) Alternative ID(s) of Target Chain>


$$$$

  SciTegic09261414532D

 32 35  0  0  0  0            999 V2000
    9.5141   -4.2540    0.0000 S   0  0
    9.0957   -4.9560    0.0000 O   0  0
    9.9128   -4.9674    0.0000 O   0  0
    4.6404   -3.7483    0.0000 O   0  0
    3.9398   -4.1320    0.0000 C   0  0  1  0  0  0
    3.2542   -3.7153    0.0000 C   0  0
    3.2780   -2.9146    0.0000 C   0  0
    2.5933   -2.4979    0.0000 C   0  0
    1.8917   -2.8817    0.0000 C   0  0
    1.8752   -3.6864    0.0000 C   0  0
    2.5606   -4.0994    0.0000 C   0  0
    3.9839   -2.5331    0.0000 C   0  0
    1.1719   -4.0726    0.0000 F   0  0
    5.3076   -4.1644    0.0000 C   0  0
    6.7149   -4.1988    0.0000 C   0  0
    5.3078   -4.9672    0.0000 C   0  0
    6.0325   -3.7814    0.0000 N   0  0
    6.6958   -5.0003    0.0000 C   0  0
    5.9943   -5.3846    0.0000 N   0  0
    4.6021   -5.3515    0.0000 N   0  0
    4.6798   -2.9615    0.0000 O   0  0
    4.0069   -1.7163    0.0000 N   0  0
    4.7258   -1.3277    0.0000 C   0  0
    3.3110   -1.2879    0.0000 C   0  0
    3.5247   -4.8371    0.0000 C   0  0
    7.4317   -3.0087    0.0000 C   0  0
    7.4181   -3.8145    0.0000 C   0  0
    8.1081   -4.2274    0.0000 C   0  0
    8.8122   -3.8356    0.0000 C   0  0
    8.8219   -3.0267    0.0000 C   0  0
    8.1313   -2.6174    0.0000 C   0  0
   10.2274   -3.8553    0.0000 C   0  0
  2  1  2  0
  1  3  2  0
 14  4  1  0
  4  5  1  0
  5  6  1  0
  6  7  2  0
  7  8  1  0
  8  9  2  0
  9 10  1  0
 10 11  2  0
 11  6  1  0
  7 12  1  0
 10 13  1  0
 16 14  1  0
 14 17  2  0
 17 15  1  0
 15 18  2  0
 18 19  1  0
 16 19  2  0
 16 20  1  0
 15 27  1  0
 12 21  2  0
 12 22  1  0
 22 23  1  0
 22 24  1  0
 23 26  1  0
  5 25  1  6
 26 27  2  0
 27 28  1  0
 28 29  2  0
 29 30  1  0
 30 31  2  0
 31 26  1  0
 29  1  1  0
  1 32  1  0
M  END
> <From>
www.bindingDB.org

> <BindingDB Reactant_set_id>
50103585

> <Ligand InChI>
InChI=1S/C22H21FN4O4S/c1-12-17-8-14(23)5-7-16(17)22(28)27(2)11-13-4-6-15(32(3,29)30)9-18(13)19-10-25-20(24)21(26-19)31-12/h4-10,12H,11H2,1-3H3,(H2,24,25)/t12-/m1/s1

> <Ligand InChI Key>
YNONWHZLPLWALE-GFCCVEGCSA-N

> <BindingDB MonomerID>
50018838

> <BindingDB Ligand Name>
CHEMBL3286828

> <Target Name>
ALK tyrosine kinase receptor

> <Target Source Organism According to Curator or DataSource>
Homo sapiens

> <Ki (nM)>


> <IC50 (nM)>
 1.9

> <Kd (nM)>


> <EC50 (nM)>


> <kon (M-1-s-1)>


> <koff (s-1)>


> <pH>


> <Temp C>


> <Curation/DataSource>
ChEMBL

> <Article DOI>
10.1021/jm500261q

> <BindingDB Entry DOI>
10.7270/Q2K35W68

> <PMID>
24819116

> <PubChem AID>


> <Patent Number>


> <Authors>
Johnson, TW; Richardson, PF; Bailey, S; Brooun, A; Burke, BJ; Collins, MR; Cui, JJ; Deal, JG; Deng, YL; Dinh, D; Engstrom, LD; He, M; Hoffman, J; Hoffman, RL; Huang, Q; Kania, RS; Kath, JC; Lam, H; Lam, JL; Le, PT; Lingardo, L; Liu, W; McTigue, M; Palmer, CL; Sach, NW; Smeal, T; Smith, GL; Stewart, AE; Timofeevski, S; Zhu, H; Zhu, J; Zou, HY; Edwards, MP

> <Date of publication>
6/12/2014

> <Date in BindingDB>
2/11/2015

> <Institution>
Pfizer Inc

> <Link to Ligand in BindingDB>
http://www.bindingdb.org/bind/chemsearch/marvin/MolStructure.jsp?monomerid=50018838

> <Link to Ligand-Target Pair in BindingDB>
http://www.bindingdb.org/jsp/dbsearch/PrimarySearch_ki.jsp?energyterm=kJ/mole&tag=pol&polymerid=5809&target=ALK+tyrosine+kinase+receptor&column=ki&startPg=0&Increment=50&submit=Search

> <Link to Ligand-Target Pair in BindingDB>
http://www.bindingdb.org/jsp/dbsearch/PrimarySearch_ki.jsp?energyterm=kJ/mole&tag=r21&monomerid=50018838&enzyme=ALK+tyrosine+kinase+receptor&column=ki&startPg=0&Increment=50&submit=Search

> <Ligand HET ID in PDB>


> <PDB ID(s) for Ligand-Target Complex>


> <PubChem CID of Ligand>
90644202

> <PubChem SID of Ligand>
103929891

> <ChEBI ID of Ligand>


> <ChEMBL ID of Ligand>
CHEMBL3286828

> <DrugBank ID of Ligand>


> <IUPHAR_GRAC ID of Ligand>


> <KEGG ID of Ligand>


> <ZINC ID of Ligand>
ZINC36080040

> <Number of Protein Chains in Target (bigger than 1 implies a multichain complex)>
1

> <BindingDB Target Chain Sequence>
MGAIGLLWLLPLLLSTAAVGSGMGTGQRAGSPAAGPPLQPREPLSYSRLQRKSLAVDFVVPSLFRVYARDLLLPPSSSELKAGRPEARGSLALDCAPLLRLLGPAPGVSWTAGSPAPAEARTLSRVLKGGSVRKLRRAKQLVLELGEEAILEGCVGPPGEAAVGLLQFNLSELFSWWIRQGEGRLRIRLMPEKKASEVGREGRLSAAIRASQPRLLFQIFGTGHSSLESPTNMPSPSPDYFTWNLTWIMKDSFPFLSHRSRYGLECSFDFPCELEYSPPLHDLRNQSWSWRRIPSEEASQMDLLDGPGAERSKEMPRGSFLLLNTSADSKHTILSPWMRSSSEHCTLAVSVHRHLQPSGRYIAQLLPHNEAAREILLMPTPGKHGWTVLQGRIGRPDNPFRVALEYISSGNRSLSAVDFFALKNCSEGTSPGSKMALQSSFTCWNGTVLQLGQACDFHQDCAQGEDESQMCRKLPVGFYCNFEDGFCGWTQGTLSPHTPQWQVRTLKDARFQDHQDHALLLSTTDVPASESATVTSATFPAPIKSSPCELRMSWLIRGVLRGNVSLVLVENKTGKEQGRMVWHVAAYEGLSLWQWMVLPLLDVSDRFWLQMVAWWGQGSRAIVAFDNISISLDCYLTISGEDKILQNTAPKSRNLFERNPNKELKPGENSPRQTPIFDPTVHWLFTTCGASGPHGPTQAQCNNAYQNSNLSVEVGSEGPLKGIQIWKVPATDTYSISGYGAAGGKGGKNTMMRSHGVSVLGIFNLEKDDMLYILVGQQGEDACPSTNQLIQKVCIGENNVIEEEIRVNRSVHEWAGGGGGGGGATYVFKMKDGVPVPLIIAAGGGGRAYGAKTDTFHPERLENNSSVLGLNGNSGAAGGGGGWNDNTSLLWAGKSLQEGATGGHSCPQAMKKWGWETRGGFGGGGGGCSSGGGGGGYIGGNAASNNDPEMDGEDGVSFISPLGILYTPALKVMEGHGEVNIKHYLNCSHCEVDECHMDPESHKVICFCDHGTVLAEDGVSCIVSPTPEPHLPLSLILSVVTSALVAALVLAFSGIMIVYRRKHQELQAMQMELQSPEYKLSKLRTSTIMTDYNPNYCFAGKTSSISDLKEVPRKNITLIRGLGHGAFGEVYEGQVSGMPNDPSPLQVAVKTLPEVCSEQDELDFLMEALIISKFNHQNIVRCIGVSLQSLPRFILLELMAGGDLKSFLRETRPRPSQPSSLAMLDLLHVARDIACGCQYLEENHFIHRDIAARNCLLTCPGPGRVAKIGDFGMARDIYRASYYRKGGCAMLPVKWMPPEAFMEGIFTSKTDTWSFGVLLWEIFSLGYMPYPSKSNQEVLEFVTSGGRMDPPKNCPGPVYRIMTQCWQHQPEDRPNFAIILERIEYCTQDPDVINTALPIEYGPLVEEEEKVPVRPKDPEGVPPLLVSQQAKREEERSPAAPPPLPTTSSGKAAKKPTAAEISVRVPRGPAVEGGHVNMAFSQSNPPSELHKVHGSRNKPTSLWNPTYGSWFTEKPTKKNNPIAKKEPHDRGNLGLEGSCTVPPNVATGRLPGASLLLEPSSLTANMKEVPLFRLRHFPCGNVNYGYQQQGLPLEAATAPGAGHYEDTILKSKNSMNQPGP

> <PDB ID(s) of Target Chain>
2XB7,2XBA,3AOX,5FTO,5FTQ,6E0R,6EBW,6EDL,6MX8,7JY4,7JYR,7JYS,7JYT,7LS0,7MZW,7MZY,7N00,7NX3,7NX4,8ARJ

> <UniProt (SwissProt) Recommended Name of Target Chain>
ALK tyrosine kinase receptor

> <UniProt (SwissProt) Entry Name of Target Chain>
ALK_HUMAN

> <UniProt (SwissProt) Primary ID of Target Chain>
Q9UM73

> <UniProt (SwissProt) Secondary ID(s) of Target Chain>
A6P4T4 A6P4V4 Q4ZFX9 Q53QQ6 Q53RZ4 Q59FI3 Q9Y4K6

> <UniProt (SwissProt) Alternative ID(s) of Target Chain>


> <UniProt (TrEMBL) Submitted Name of Target Chain>


> <UniProt (TrEMBL) Entry Name of Target Chain>


> <UniProt (TrEMBL) Primary ID of Target Chain>


> <UniProt (TrEMBL) Secondary ID(s) of Target Chain>


> <UniProt (TrEMBL) Alternative ID(s) of Target Chain>


$$$$

  SciTegic09261414532D

 30 33  0  0  0  0            999 V2000
    4.9144   -4.1325    0.0000 O   0  0
    4.1936   -4.5272    0.0000 C   0  0  1  0  0  0
    3.4882   -4.0984    0.0000 C   0  0
    3.5127   -3.2747    0.0000 C   0  0
    2.8082   -2.8460    0.0000 C   0  0
    2.0864   -3.2408    0.0000 C   0  0
    2.0694   -4.0688    0.0000 C   0  0
    2.7746   -4.4937    0.0000 C   0  0
    4.2390   -2.8822    0.0000 C   0  0
    1.3458   -4.4661    0.0000 F   0  0
    7.7877   -3.3715    0.0000 C   0  0
    5.6008   -4.5605    0.0000 C   0  0
    7.0487   -4.5960    0.0000 C   0  0
    5.6010   -5.3865    0.0000 C   0  0
    6.3467   -4.1665    0.0000 C   0  0
    7.0291   -5.4206    0.0000 C   0  0
    6.3074   -5.8159    0.0000 N   0  0
    4.8750   -5.7818    0.0000 N   0  0
    7.7722   -4.2006    0.0000 C   0  0
    8.5486   -4.4694    0.0000 C   0  0
    9.0491   -3.8134    0.0000 N   0  0
    8.5787   -3.1397    0.0000 N   0  0
    8.7869   -5.2566    0.0000 O   0  0
    4.9549   -3.3229    0.0000 O   0  0
    4.2626   -2.0417    0.0000 N   0  0
    5.0023   -1.6420    0.0000 C   0  0
    3.5466   -1.6011    0.0000 C   0  0
    8.8577   -2.3466    0.0000 C   0  0
    3.7665   -5.2527    0.0000 C   0  0
    8.2119   -5.8700    0.0000 C   0  0
 12  1  1  0
  1  2  1  0
  2  3  1  0
  3  4  2  0
  4  5  1  0
  5  6  2  0
  6  7  1  0
  7  8  2  0
  8  3  1  0
  4  9  1  0
  7 10  1  0
 14 12  1  0
 12 15  2  0
 15 13  1  0
 13 16  2  0
 16 17  1  0
 14 17  2  0
 14 18  1  0
 13 19  1  0
 11 19  2  0
 19 20  1  0
 20 21  2  0
 21 22  1  0
 22 11  1  0
 20 23  1  0
  9 24  2  0
  9 25  1  0
 25 26  1  0
 25 27  1  0
 26 11  1  0
 22 28  1  0
  2 29  1  6
 23 30  1  0
M  END
> <From>
www.bindingDB.org

> <BindingDB Reactant_set_id>
50103580

> <Ligand InChI>
InChI=1S/C21H22FN5O3/c1-11-15-8-13(22)5-6-14(15)21(28)26(2)10-16-18(20(29-4)25-27(16)3)12-7-17(30-11)19(23)24-9-12/h5-9,11H,10H2,1-4H3,(H2,23,24)/t11-/m1/s1

> <Ligand InChI Key>
WIMIQKULKCAFMS-LLVKDONJSA-N

> <BindingDB MonomerID>
50018835

> <BindingDB Ligand Name>
CHEMBL3286825

> <Target Name>
ALK tyrosine kinase receptor

> <Target Source Organism According to Curator or DataSource>
Homo sapiens

> <Ki (nM)>


> <IC50 (nM)>
 2.1

> <Kd (nM)>


> <EC50 (nM)>


> <kon (M-1-s-1)>


> <koff (s-1)>


> <pH>


> <Temp C>


> <Curation/DataSource>
ChEMBL

> <Article DOI>
10.1021/jm500261q

> <BindingDB Entry DOI>
10.7270/Q2K35W68

> <PMID>
24819116

> <PubChem AID>


> <Patent Number>


> <Authors>
Johnson, TW; Richardson, PF; Bailey, S; Brooun, A; Burke, BJ; Collins, MR; Cui, JJ; Deal, JG; Deng, YL; Dinh, D; Engstrom, LD; He, M; Hoffman, J; Hoffman, RL; Huang, Q; Kania, RS; Kath, JC; Lam, H; Lam, JL; Le, PT; Lingardo, L; Liu, W; McTigue, M; Palmer, CL; Sach, NW; Smeal, T; Smith, GL; Stewart, AE; Timofeevski, S; Zhu, H; Zhu, J; Zou, HY; Edwards, MP

> <Date of publication>
6/12/2014

> <Date in BindingDB>
2/11/2015

> <Institution>
Pfizer Inc

> <Link to Ligand in BindingDB>
http://www.bindingdb.org/bind/chemsearch/marvin/MolStructure.jsp?monomerid=50018835

> <Link to Ligand-Target Pair in BindingDB>
http://www.bindingdb.org/jsp/dbsearch/PrimarySearch_ki.jsp?energyterm=kJ/mole&tag=pol&polymerid=5809&target=ALK+tyrosine+kinase+receptor&column=ki&startPg=0&Increment=50&submit=Search

> <Link to Ligand-Target Pair in BindingDB>
http://www.bindingdb.org/jsp/dbsearch/PrimarySearch_ki.jsp?energyterm=kJ/mole&tag=r21&monomerid=50018835&enzyme=ALK+tyrosine+kinase+receptor&column=ki&startPg=0&Increment=50&submit=Search

> <Ligand HET ID in PDB>


> <PDB ID(s) for Ligand-Target Complex>


> <PubChem CID of Ligand>
89807790

> <PubChem SID of Ligand>
103929888

> <ChEBI ID of Ligand>


> <ChEMBL ID of Ligand>
CHEMBL3286825

> <DrugBank ID of Ligand>


> <IUPHAR_GRAC ID of Ligand>


> <KEGG ID of Ligand>


> <ZINC ID of Ligand>
ZINC36080055

> <Number of Protein Chains in Target (bigger than 1 implies a multichain complex)>
1

> <BindingDB Target Chain Sequence>
MGAIGLLWLLPLLLSTAAVGSGMGTGQRAGSPAAGPPLQPREPLSYSRLQRKSLAVDFVVPSLFRVYARDLLLPPSSSELKAGRPEARGSLALDCAPLLRLLGPAPGVSWTAGSPAPAEARTLSRVLKGGSVRKLRRAKQLVLELGEEAILEGCVGPPGEAAVGLLQFNLSELFSWWIRQGEGRLRIRLMPEKKASEVGREGRLSAAIRASQPRLLFQIFGTGHSSLESPTNMPSPSPDYFTWNLTWIMKDSFPFLSHRSRYGLECSFDFPCELEYSPPLHDLRNQSWSWRRIPSEEASQMDLLDGPGAERSKEMPRGSFLLLNTSADSKHTILSPWMRSSSEHCTLAVSVHRHLQPSGRYIAQLLPHNEAAREILLMPTPGKHGWTVLQGRIGRPDNPFRVALEYISSGNRSLSAVDFFALKNCSEGTSPGSKMALQSSFTCWNGTVLQLGQACDFHQDCAQGEDESQMCRKLPVGFYCNFEDGFCGWTQGTLSPHTPQWQVRTLKDARFQDHQDHALLLSTTDVPASESATVTSATFPAPIKSSPCELRMSWLIRGVLRGNVSLVLVENKTGKEQGRMVWHVAAYEGLSLWQWMVLPLLDVSDRFWLQMVAWWGQGSRAIVAFDNISISLDCYLTISGEDKILQNTAPKSRNLFERNPNKELKPGENSPRQTPIFDPTVHWLFTTCGASGPHGPTQAQCNNAYQNSNLSVEVGSEGPLKGIQIWKVPATDTYSISGYGAAGGKGGKNTMMRSHGVSVLGIFNLEKDDMLYILVGQQGEDACPSTNQLIQKVCIGENNVIEEEIRVNRSVHEWAGGGGGGGGATYVFKMKDGVPVPLIIAAGGGGRAYGAKTDTFHPERLENNSSVLGLNGNSGAAGGGGGWNDNTSLLWAGKSLQEGATGGHSCPQAMKKWGWETRGGFGGGGGGCSSGGGGGGYIGGNAASNNDPEMDGEDGVSFISPLGILYTPALKVMEGHGEVNIKHYLNCSHCEVDECHMDPESHKVICFCDHGTVLAEDGVSCIVSPTPEPHLPLSLILSVVTSALVAALVLAFSGIMIVYRRKHQELQAMQMELQSPEYKLSKLRTSTIMTDYNPNYCFAGKTSSISDLKEVPRKNITLIRGLGHGAFGEVYEGQVSGMPNDPSPLQVAVKTLPEVCSEQDELDFLMEALIISKFNHQNIVRCIGVSLQSLPRFILLELMAGGDLKSFLRETRPRPSQPSSLAMLDLLHVARDIACGCQYLEENHFIHRDIAARNCLLTCPGPGRVAKIGDFGMARDIYRASYYRKGGCAMLPVKWMPPEAFMEGIFTSKTDTWSFGVLLWEIFSLGYMPYPSKSNQEVLEFVTSGGRMDPPKNCPGPVYRIMTQCWQHQPEDRPNFAIILERIEYCTQDPDVINTALPIEYGPLVEEEEKVPVRPKDPEGVPPLLVSQQAKREEERSPAAPPPLPTTSSGKAAKKPTAAEISVRVPRGPAVEGGHVNMAFSQSNPPSELHKVHGSRNKPTSLWNPTYGSWFTEKPTKKNNPIAKKEPHDRGNLGLEGSCTVPPNVATGRLPGASLLLEPSSLTANMKEVPLFRLRHFPCGNVNYGYQQQGLPLEAATAPGAGHYEDTILKSKNSMNQPGP

> <PDB ID(s) of Target Chain>
2XB7,2XBA,3AOX,5FTO,5FTQ,6E0R,6EBW,6EDL,6MX8,7JY4,7JYR,7JYS,7JYT,7LS0,7MZW,7MZY,7N00,7NX3,7NX4,8ARJ

> <UniProt (SwissProt) Recommended Name of Target Chain>
ALK tyrosine kinase receptor

> <UniProt (SwissProt) Entry Name of Target Chain>
ALK_HUMAN

> <UniProt (SwissProt) Primary ID of Target Chain>
Q9UM73

> <UniProt (SwissProt) Secondary ID(s) of Target Chain>
A6P4T4 A6P4V4 Q4ZFX9 Q53QQ6 Q53RZ4 Q59FI3 Q9Y4K6

> <UniProt (SwissProt) Alternative ID(s) of Target Chain>


> <UniProt (TrEMBL) Submitted Name of Target Chain>


> <UniProt (TrEMBL) Entry Name of Target Chain>


> <UniProt (TrEMBL) Primary ID of Target Chain>


> <UniProt (TrEMBL) Secondary ID(s) of Target Chain>


> <UniProt (TrEMBL) Alternative ID(s) of Target Chain>


$$$$

  SciTegic09261414532D

 30 33  0  0  0  0            999 V2000
   15.5386   -5.1488    0.0000 O   0  0
   14.8183   -5.5433    0.0000 C   0  0  1  0  0  0
   14.1133   -5.1148    0.0000 C   0  0
   14.1378   -4.2915    0.0000 C   0  0
   13.4336   -3.8630    0.0000 C   0  0
   12.7123   -4.2576    0.0000 C   0  0
   12.6952   -5.0851    0.0000 C   0  0
   13.4001   -5.5098    0.0000 C   0  0
   14.8637   -3.8992    0.0000 C   0  0
   11.9721   -5.4822    0.0000 F   0  0
   18.4105   -4.3883    0.0000 C   0  0
   16.2248   -5.5766    0.0000 C   0  0
   17.6719   -5.6120    0.0000 C   0  0
   16.2249   -6.4022    0.0000 C   0  0
   16.9702   -5.1828    0.0000 C   0  0
   17.6523   -6.4363    0.0000 C   0  0
   16.9309   -6.8314    0.0000 N   0  0
   15.4994   -6.7973    0.0000 N   0  0
   18.3950   -5.2168    0.0000 C   0  0
   19.1710   -5.4856    0.0000 C   0  0
   19.6711   -4.8299    0.0000 N   0  0
   19.2011   -4.1567    0.0000 N   0  0
   14.3999   -6.2556    0.0000 C   0  0
   15.5793   -4.3397    0.0000 O   0  0
   14.8873   -3.0593    0.0000 N   0  0
   15.6266   -2.6597    0.0000 C   0  0
   14.1716   -2.6188    0.0000 C   0  0
   20.5114   -4.8476    0.0000 C   0  0
   19.4137   -6.2884    0.0000 C   0  0
   19.6562   -7.0930    0.0000 N   0  0
 12  1  1  0
  1  2  1  0
  2  3  1  0
  3  4  2  0
  4  5  1  0
  5  6  2  0
  6  7  1  0
  7  8  2  0
  8  3  1  0
  4  9  1  0
  7 10  1  0
 14 12  1  0
 12 15  2  0
 15 13  1  0
 13 16  2  0
 16 17  1  0
 14 17  2  0
 14 18  1  0
 13 19  1  0
 11 19  1  0
 19 20  2  0
 20 21  1  0
 21 22  1  0
 22 11  2  0
  2 23  1  6
  9 24  2  0
  9 25  1  0
 25 26  1  0
 25 27  1  0
 26 11  1  0
 21 28  1  0
 29 30  3  0
 20 29  1  0
M  END
> <From>
www.bindingDB.org

> <BindingDB Reactant_set_id>
50103544

> <Ligand InChI>
InChI=1S/C21H19FN6O2/c1-11-15-7-13(22)4-5-14(15)21(29)27(2)10-16-19(17(8-23)28(3)26-16)12-6-18(30-11)20(24)25-9-12/h4-7,9,11H,10H2,1-3H3,(H2,24,25)/t11-/m1/s1

> <Ligand InChI Key>
IIXWYSCJSQVBQM-LLVKDONJSA-N

> <BindingDB MonomerID>
50018830

> <BindingDB Ligand Name>
CHEMBL3286830::US10543199, Compound PF-06463922::US10780082, Compound PF-06463922::US11517561, Compound PF-06463922

> <Target Name>
Leukocyte tyrosine kinase receptor

> <Target Source Organism According to Curator or DataSource>
Homo sapiens

> <Ki (nM)>


> <IC50 (nM)>
 2.7

> <Kd (nM)>


> <EC50 (nM)>


> <kon (M-1-s-1)>


> <koff (s-1)>


> <pH>


> <Temp C>


> <Curation/DataSource>
ChEMBL

> <Article DOI>
10.1021/jm500261q

> <BindingDB Entry DOI>
10.7270/Q2K35W68

> <PMID>
24819116

> <PubChem AID>


> <Patent Number>


> <Authors>
Johnson, TW; Richardson, PF; Bailey, S; Brooun, A; Burke, BJ; Collins, MR; Cui, JJ; Deal, JG; Deng, YL; Dinh, D; Engstrom, LD; He, M; Hoffman, J; Hoffman, RL; Huang, Q; Kania, RS; Kath, JC; Lam, H; Lam, JL; Le, PT; Lingardo, L; Liu, W; McTigue, M; Palmer, CL; Sach, NW; Smeal, T; Smith, GL; Stewart, AE; Timofeevski, S; Zhu, H; Zhu, J; Zou, HY; Edwards, MP

> <Date of publication>
6/12/2014

> <Date in BindingDB>
2/11/2015

> <Institution>
Pfizer Inc

> <Link to Ligand in BindingDB>
http://www.bindingdb.org/bind/chemsearch/marvin/MolStructure.jsp?monomerid=50018830

> <Link to Ligand-Target Pair in BindingDB>
http://www.bindingdb.org/jsp/dbsearch/PrimarySearch_ki.jsp?energyterm=kJ/mole&tag=pol&polymerid=50004224&target=Leukocyte+tyrosine+kinase+receptor&column=ki&startPg=0&Increment=50&submit=Search

> <Link to Ligand-Target Pair in BindingDB>
http://www.bindingdb.org/jsp/dbsearch/PrimarySearch_ki.jsp?energyterm=kJ/mole&tag=r21&monomerid=50018830&enzyme=Leukocyte+tyrosine+kinase+receptor&column=ki&startPg=0&Increment=50&submit=Search

> <Ligand HET ID in PDB>
53P

> <PDB ID(s) for Ligand-Target Complex>


> <PubChem CID of Ligand>
71731823

> <PubChem SID of Ligand>
103929883

> <ChEBI ID of Ligand>


> <ChEMBL ID of Ligand>
CHEMBL3286830

> <DrugBank ID of Ligand>


> <IUPHAR_GRAC ID of Ligand>


> <KEGG ID of Ligand>


> <ZINC ID of Ligand>
ZINC33891516

> <Number of Protein Chains in Target (bigger than 1 implies a multichain complex)>
1

> <BindingDB Target Chain Sequence>
MGCWGQLLVWFGAAGAILCSSPGSQETFLRSSPLPLASPSPRDPKVSAPPSILEPASPLNSPGTEGSWLFSTCGASGRHGPTQTQCDGAYAGTSVVVTVGAAGQLRGVQLWRVPGPGQYLISAYGAAGGKGAKNHLSRAHGVFVSAIFSLGLGESLYILVGQQGEDACPGGSPESQLVCLGESRAVEEHAAMDGSEGVPGSRRWAGGGGGGGGATYVFRVRAGELEPLLVAAGGGGRAYLRPRDRGRTQASPEKLENRSEAPGSGGRGGAAGGGGGWTSRAPSPQAGRSLQEGAEGGQGCSEAWATLGWAAAGGFGGGGGACTAGGGGGGYRGGDASETDNLWADGEDGVSFIHPSSELFLQPLAVTENHGEVEIRRHLNCSHCPLRDCQWQAELQLAECLCPEGMELAVDNVTCMDLHKPPGPLVLMVAVVATSTLSLLMVCGVLILVKQKKWQGLQEMRLPSPELELSKLRTSAIRTAPNPYYCQVGLGPAQSWPLPPGVTEVSPANVTLLRALGHGAFGEVYEGLVIGLPGDSSPLQVAIKTLPELCSPQDELDFLMEALIISKFRHQNIVRCVGLSLRATPRLILLELMSGGDMKSFLRHSRPHLGQPSPLVMRDLLQLAQDIAQGCHYLEENHFIHRDIAARNCLLSCAGPSRVAKIGDFGMARDIYRASYYRRGDRALLPVKWMPPEAFLEGIFTSKTDSWSFGVLLWEIFSLGYMPYPGRTNQEVLDFVVGGGRMDPPRGCPGPVYRIMTQCWQHEPELRPSFASILERLQYCTQDPDVLNSLLPMELGPTPEEEGTSGLGNRSLECLRPPQPQELSPEKLKSWGGSPLGPWLSSGLKPLKSRGLQPQNLWNPTYRS

> <PDB ID(s) of Target Chain>
7NX0,7NX1

> <UniProt (SwissProt) Recommended Name of Target Chain>
Leukocyte tyrosine kinase receptor

> <UniProt (SwissProt) Entry Name of Target Chain>
LTK_HUMAN

> <UniProt (SwissProt) Primary ID of Target Chain>
P29376

> <UniProt (SwissProt) Secondary ID(s) of Target Chain>
A6NNJ8 B4DL89 E9PFX4

> <UniProt (SwissProt) Alternative ID(s) of Target Chain>


> <UniProt (TrEMBL) Submitted Name of Target Chain>


> <UniProt (TrEMBL) Entry Name of Target Chain>


> <UniProt (TrEMBL) Primary ID of Target Chain>


> <UniProt (TrEMBL) Secondary ID(s) of Target Chain>


> <UniProt (TrEMBL) Alternative ID(s) of Target Chain>


$$$$

  SciTegic09261414532D

 30 33  0  0  0  0            999 V2000
   15.5386   -5.1488    0.0000 O   0  0
   14.8183   -5.5433    0.0000 C   0  0  1  0  0  0
   14.1133   -5.1148    0.0000 C   0  0
   14.1378   -4.2915    0.0000 C   0  0
   13.4336   -3.8630    0.0000 C   0  0
   12.7123   -4.2576    0.0000 C   0  0
   12.6952   -5.0851    0.0000 C   0  0
   13.4001   -5.5098    0.0000 C   0  0
   14.8637   -3.8992    0.0000 C   0  0
   11.9721   -5.4822    0.0000 F   0  0
   18.4105   -4.3883    0.0000 C   0  0
   16.2248   -5.5766    0.0000 C   0  0
   17.6719   -5.6120    0.0000 C   0  0
   16.2249   -6.4022    0.0000 C   0  0
   16.9702   -5.1828    0.0000 C   0  0
   17.6523   -6.4363    0.0000 C   0  0
   16.9309   -6.8314    0.0000 N   0  0
   15.4994   -6.7973    0.0000 N   0  0
   18.3950   -5.2168    0.0000 C   0  0
   19.1710   -5.4856    0.0000 C   0  0
   19.6711   -4.8299    0.0000 N   0  0
   19.2011   -4.1567    0.0000 N   0  0
   14.3999   -6.2556    0.0000 C   0  0
   15.5793   -4.3397    0.0000 O   0  0
   14.8873   -3.0593    0.0000 N   0  0
   15.6266   -2.6597    0.0000 C   0  0
   14.1716   -2.6188    0.0000 C   0  0
   20.5114   -4.8476    0.0000 C   0  0
   19.4137   -6.2884    0.0000 C   0  0
   19.6562   -7.0930    0.0000 N   0  0
 12  1  1  0
  1  2  1  0
  2  3  1  0
  3  4  2  0
  4  5  1  0
  5  6  2  0
  6  7  1  0
  7  8  2  0
  8  3  1  0
  4  9  1  0
  7 10  1  0
 14 12  1  0
 12 15  2  0
 15 13  1  0
 13 16  2  0
 16 17  1  0
 14 17  2  0
 14 18  1  0
 13 19  1  0
 11 19  1  0
 19 20  2  0
 20 21  1  0
 21 22  1  0
 22 11  2  0
  2 23  1  6
  9 24  2  0
  9 25  1  0
 25 26  1  0
 25 27  1  0
 26 11  1  0
 21 28  1  0
 29 30  3  0
 20 29  1  0
M  END
> <From>
www.bindingDB.org

> <BindingDB Reactant_set_id>
50103633

> <Ligand InChI>
InChI=1S/C21H19FN6O2/c1-11-15-7-13(22)4-5-14(15)21(29)27(2)10-16-19(17(8-23)28(3)26-16)12-6-18(30-11)20(24)25-9-12/h4-7,9,11H,10H2,1-3H3,(H2,24,25)/t11-/m1/s1

> <Ligand InChI Key>
IIXWYSCJSQVBQM-LLVKDONJSA-N

> <BindingDB MonomerID>
50018830

> <BindingDB Ligand Name>
CHEMBL3286830::US10543199, Compound PF-06463922::US10780082, Compound PF-06463922::US11517561, Compound PF-06463922

> <Target Name>
Tyrosine-protein kinase Fer

> <Target Source Organism According to Curator or DataSource>
Human

> <Ki (nM)>


> <IC50 (nM)>
 3.3

> <Kd (nM)>


> <EC50 (nM)>


> <kon (M-1-s-1)>


> <koff (s-1)>


> <pH>


> <Temp C>


> <Curation/DataSource>
ChEMBL

> <Article DOI>
10.1021/jm500261q

> <BindingDB Entry DOI>
10.7270/Q2K35W68

> <PMID>
24819116

> <PubChem AID>


> <Patent Number>


> <Authors>
Johnson, TW; Richardson, PF; Bailey, S; Brooun, A; Burke, BJ; Collins, MR; Cui, JJ; Deal, JG; Deng, YL; Dinh, D; Engstrom, LD; He, M; Hoffman, J; Hoffman, RL; Huang, Q; Kania, RS; Kath, JC; Lam, H; Lam, JL; Le, PT; Lingardo, L; Liu, W; McTigue, M; Palmer, CL; Sach, NW; Smeal, T; Smith, GL; Stewart, AE; Timofeevski, S; Zhu, H; Zhu, J; Zou, HY; Edwards, MP

> <Date of publication>
6/12/2014

> <Date in BindingDB>
2/11/2015

> <Institution>
Pfizer Inc

> <Link to Ligand in BindingDB>
http://www.bindingdb.org/bind/chemsearch/marvin/MolStructure.jsp?monomerid=50018830

> <Link to Ligand-Target Pair in BindingDB>
http://www.bindingdb.org/jsp/dbsearch/PrimarySearch_ki.jsp?energyterm=kJ/mole&tag=pol&polymerid=8068&target=Tyrosine-protein+kinase+Fer&column=ki&startPg=0&Increment=50&submit=Search

> <Link to Ligand-Target Pair in BindingDB>
http://www.bindingdb.org/jsp/dbsearch/PrimarySearch_ki.jsp?energyterm=kJ/mole&tag=r21&monomerid=50018830&enzyme=Tyrosine-protein+kinase+Fer&column=ki&startPg=0&Increment=50&submit=Search

> <Ligand HET ID in PDB>
53P

> <PDB ID(s) for Ligand-Target Complex>


> <PubChem CID of Ligand>
71731823

> <PubChem SID of Ligand>
103929883

> <ChEBI ID of Ligand>


> <ChEMBL ID of Ligand>
CHEMBL3286830

> <DrugBank ID of Ligand>


> <IUPHAR_GRAC ID of Ligand>


> <KEGG ID of Ligand>


> <ZINC ID of Ligand>
ZINC33891516

> <Number of Protein Chains in Target (bigger than 1 implies a multichain complex)>
1

> <BindingDB Target Chain Sequence>
MGFGSDLKNSHEAVLKLQDWELRLLETVKKFMALRIKSDKEYASTLQNLCNQVDKESTVQMNYVSNVSKSWLLMIQQTEQLSRIMKTHAEDLNSGPLHRLTMMIKDKQQVKKSYIGVHQQIEAEMIKVTKTELEKLKCSYRQLIKEMNSAKEKYKEALAKGKETEKAKERYDKATMKLHMLHNQYVLALKGAQLHQNQYYDITLPLLLDSLQKMQEEMIKALKGIFDEYSQITSLVTEEIVNVHKEIQMSVEQIDPSTEYNNFIDVHRTTAAKEQEIEFDTSLLEENENLQANEIMWNNLTAESLQVMLKTLAEELMQTQQMLLNKEEAVLELEKRIEESSETCEKKSDIVLLLSQKQALEELKQSVQQLRCTEAKFSAQKELLEQKVQENDGKEPPPVVNYEEDARSVTSMERKERLSKFESIRHSIAGIIRSPKSALGSSALSDMISISEKPLAEQDWYHGAIPRIEAQELLKKQGDFLVRESHGKPGEYVLSVYSDGQRRHFIIQYVDNMYRFEGTGFSNIPQLIDHHYTTKQVITKKSGVVLLNPIPKDKKWILSHEDVILGELLGKGNFGEVYKGTLKDKTSVAVKTCKEDLPQELKIKFLQEAKILKQYDHPNIVKLIGVCTQRQPVYIIMELVSGGDFLTFLRRKKDELKLKQLVKFSLDAAAGMLYLESKNCIHRDLAARNCLVGENNVLKISDFGMSRQEDGGVYSSSGLKQIPIKWTAPEALNYGRYSSESDVWSFGILLWETFSLGVCPYPGMTNQQAREQVERGYRMSAPQHCPEDISKIMMKCWDYKPENRPKFSELQKELTIIKRKLT

> <PDB ID(s) of Target Chain>
2KK6

> <UniProt (SwissProt) Recommended Name of Target Chain>
Tyrosine-protein kinase Fer

> <UniProt (SwissProt) Entry Name of Target Chain>
FER_HUMAN

> <UniProt (SwissProt) Primary ID of Target Chain>
P16591

> <UniProt (SwissProt) Secondary ID(s) of Target Chain>
B2RCR4 B4DSQ2 H2FLB8

> <UniProt (SwissProt) Alternative ID(s) of Target Chain>


> <UniProt (TrEMBL) Submitted Name of Target Chain>


> <UniProt (TrEMBL) Entry Name of Target Chain>


> <UniProt (TrEMBL) Primary ID of Target Chain>


> <UniProt (TrEMBL) Secondary ID(s) of Target Chain>


> <UniProt (TrEMBL) Alternative ID(s) of Target Chain>


$$$$

  SciTegic09261414532D

 30 33  0  0  0  0            999 V2000
   15.5386   -5.1488    0.0000 O   0  0
   14.8183   -5.5433    0.0000 C   0  0  1  0  0  0
   14.1133   -5.1148    0.0000 C   0  0
   14.1378   -4.2915    0.0000 C   0  0
   13.4336   -3.8630    0.0000 C   0  0
   12.7123   -4.2576    0.0000 C   0  0
   12.6952   -5.0851    0.0000 C   0  0
   13.4001   -5.5098    0.0000 C   0  0
   14.8637   -3.8992    0.0000 C   0  0
   11.9721   -5.4822    0.0000 F   0  0
   18.4105   -4.3883    0.0000 C   0  0
   16.2248   -5.5766    0.0000 C   0  0
   17.6719   -5.6120    0.0000 C   0  0
   16.2249   -6.4022    0.0000 C   0  0
   16.9702   -5.1828    0.0000 C   0  0
   17.6523   -6.4363    0.0000 C   0  0
   16.9309   -6.8314    0.0000 N   0  0
   15.4994   -6.7973    0.0000 N   0  0
   18.3950   -5.2168    0.0000 C   0  0
   19.1710   -5.4856    0.0000 C   0  0
   19.6711   -4.8299    0.0000 N   0  0
   19.2011   -4.1567    0.0000 N   0  0
   14.3999   -6.2556    0.0000 C   0  0
   15.5793   -4.3397    0.0000 O   0  0
   14.8873   -3.0593    0.0000 N   0  0
   15.6266   -2.6597    0.0000 C   0  0
   14.1716   -2.6188    0.0000 C   0  0
   20.5114   -4.8476    0.0000 C   0  0
   19.4137   -6.2884    0.0000 C   0  0
   19.6562   -7.0930    0.0000 N   0  0
 12  1  1  0
  1  2  1  0
  2  3  1  0
  3  4  2  0
  4  5  1  0
  5  6  2  0
  6  7  1  0
  7  8  2  0
  8  3  1  0
  4  9  1  0
  7 10  1  0
 14 12  1  0
 12 15  2  0
 15 13  1  0
 13 16  2  0
 16 17  1  0
 14 17  2  0
 14 18  1  0
 13 19  1  0
 11 19  1  0
 19 20  2  0
 20 21  1  0
 21 22  1  0
 22 11  2  0
  2 23  1  6
  9 24  2  0
  9 25  1  0
 25 26  1  0
 25 27  1  0
 26 11  1  0
 21 28  1  0
 29 30  3  0
 20 29  1  0
M  END
> <From>
www.bindingDB.org

> <BindingDB Reactant_set_id>
50103622

> <Ligand InChI>
InChI=1S/C21H19FN6O2/c1-11-15-7-13(22)4-5-14(15)21(29)27(2)10-16-19(17(8-23)28(3)26-16)12-6-18(30-11)20(24)25-9-12/h4-7,9,11H,10H2,1-3H3,(H2,24,25)/t11-/m1/s1

> <Ligand InChI Key>
IIXWYSCJSQVBQM-LLVKDONJSA-N

> <BindingDB MonomerID>
50018830

> <BindingDB Ligand Name>
CHEMBL3286830::US10543199, Compound PF-06463922::US10780082, Compound PF-06463922::US11517561, Compound PF-06463922

> <Target Name>
ALK tyrosine kinase receptor

> <Target Source Organism According to Curator or DataSource>
Homo sapiens

> <Ki (nM)>


> <IC50 (nM)>
 4.2

> <Kd (nM)>


> <EC50 (nM)>


> <kon (M-1-s-1)>


> <koff (s-1)>


> <pH>


> <Temp C>


> <Curation/DataSource>
ChEMBL

> <Article DOI>
10.1021/jm500261q

> <BindingDB Entry DOI>
10.7270/Q2K35W68

> <PMID>
24819116

> <PubChem AID>


> <Patent Number>


> <Authors>
Johnson, TW; Richardson, PF; Bailey, S; Brooun, A; Burke, BJ; Collins, MR; Cui, JJ; Deal, JG; Deng, YL; Dinh, D; Engstrom, LD; He, M; Hoffman, J; Hoffman, RL; Huang, Q; Kania, RS; Kath, JC; Lam, H; Lam, JL; Le, PT; Lingardo, L; Liu, W; McTigue, M; Palmer, CL; Sach, NW; Smeal, T; Smith, GL; Stewart, AE; Timofeevski, S; Zhu, H; Zhu, J; Zou, HY; Edwards, MP

> <Date of publication>
6/12/2014

> <Date in BindingDB>
2/11/2015

> <Institution>
Pfizer Inc

> <Link to Ligand in BindingDB>
http://www.bindingdb.org/bind/chemsearch/marvin/MolStructure.jsp?monomerid=50018830

> <Link to Ligand-Target Pair in BindingDB>
http://www.bindingdb.org/jsp/dbsearch/PrimarySearch_ki.jsp?energyterm=kJ/mole&tag=pol&polymerid=5809&target=ALK+tyrosine+kinase+receptor&column=ki&startPg=0&Increment=50&submit=Search

> <Link to Ligand-Target Pair in BindingDB>
http://www.bindingdb.org/jsp/dbsearch/PrimarySearch_ki.jsp?energyterm=kJ/mole&tag=r21&monomerid=50018830&enzyme=ALK+tyrosine+kinase+receptor&column=ki&startPg=0&Increment=50&submit=Search

> <Ligand HET ID in PDB>
53P

> <PDB ID(s) for Ligand-Target Complex>


> <PubChem CID of Ligand>
71731823

> <PubChem SID of Ligand>
103929883

> <ChEBI ID of Ligand>


> <ChEMBL ID of Ligand>
CHEMBL3286830

> <DrugBank ID of Ligand>


> <IUPHAR_GRAC ID of Ligand>


> <KEGG ID of Ligand>


> <ZINC ID of Ligand>
ZINC33891516

> <Number of Protein Chains in Target (bigger than 1 implies a multichain complex)>
1

> <BindingDB Target Chain Sequence>
MGAIGLLWLLPLLLSTAAVGSGMGTGQRAGSPAAGPPLQPREPLSYSRLQRKSLAVDFVVPSLFRVYARDLLLPPSSSELKAGRPEARGSLALDCAPLLRLLGPAPGVSWTAGSPAPAEARTLSRVLKGGSVRKLRRAKQLVLELGEEAILEGCVGPPGEAAVGLLQFNLSELFSWWIRQGEGRLRIRLMPEKKASEVGREGRLSAAIRASQPRLLFQIFGTGHSSLESPTNMPSPSPDYFTWNLTWIMKDSFPFLSHRSRYGLECSFDFPCELEYSPPLHDLRNQSWSWRRIPSEEASQMDLLDGPGAERSKEMPRGSFLLLNTSADSKHTILSPWMRSSSEHCTLAVSVHRHLQPSGRYIAQLLPHNEAAREILLMPTPGKHGWTVLQGRIGRPDNPFRVALEYISSGNRSLSAVDFFALKNCSEGTSPGSKMALQSSFTCWNGTVLQLGQACDFHQDCAQGEDESQMCRKLPVGFYCNFEDGFCGWTQGTLSPHTPQWQVRTLKDARFQDHQDHALLLSTTDVPASESATVTSATFPAPIKSSPCELRMSWLIRGVLRGNVSLVLVENKTGKEQGRMVWHVAAYEGLSLWQWMVLPLLDVSDRFWLQMVAWWGQGSRAIVAFDNISISLDCYLTISGEDKILQNTAPKSRNLFERNPNKELKPGENSPRQTPIFDPTVHWLFTTCGASGPHGPTQAQCNNAYQNSNLSVEVGSEGPLKGIQIWKVPATDTYSISGYGAAGGKGGKNTMMRSHGVSVLGIFNLEKDDMLYILVGQQGEDACPSTNQLIQKVCIGENNVIEEEIRVNRSVHEWAGGGGGGGGATYVFKMKDGVPVPLIIAAGGGGRAYGAKTDTFHPERLENNSSVLGLNGNSGAAGGGGGWNDNTSLLWAGKSLQEGATGGHSCPQAMKKWGWETRGGFGGGGGGCSSGGGGGGYIGGNAASNNDPEMDGEDGVSFISPLGILYTPALKVMEGHGEVNIKHYLNCSHCEVDECHMDPESHKVICFCDHGTVLAEDGVSCIVSPTPEPHLPLSLILSVVTSALVAALVLAFSGIMIVYRRKHQELQAMQMELQSPEYKLSKLRTSTIMTDYNPNYCFAGKTSSISDLKEVPRKNITLIRGLGHGAFGEVYEGQVSGMPNDPSPLQVAVKTLPEVCSEQDELDFLMEALIISKFNHQNIVRCIGVSLQSLPRFILLELMAGGDLKSFLRETRPRPSQPSSLAMLDLLHVARDIACGCQYLEENHFIHRDIAARNCLLTCPGPGRVAKIGDFGMARDIYRASYYRKGGCAMLPVKWMPPEAFMEGIFTSKTDTWSFGVLLWEIFSLGYMPYPSKSNQEVLEFVTSGGRMDPPKNCPGPVYRIMTQCWQHQPEDRPNFAIILERIEYCTQDPDVINTALPIEYGPLVEEEEKVPVRPKDPEGVPPLLVSQQAKREEERSPAAPPPLPTTSSGKAAKKPTAAEISVRVPRGPAVEGGHVNMAFSQSNPPSELHKVHGSRNKPTSLWNPTYGSWFTEKPTKKNNPIAKKEPHDRGNLGLEGSCTVPPNVATGRLPGASLLLEPSSLTANMKEVPLFRLRHFPCGNVNYGYQQQGLPLEAATAPGAGHYEDTILKSKNSMNQPGP

> <PDB ID(s) of Target Chain>
2XB7,2XBA,3AOX,5FTO,5FTQ,6E0R,6EBW,6EDL,6MX8,7JY4,7JYR,7JYS,7JYT,7LS0,7MZW,7MZY,7N00,7NX3,7NX4,8ARJ

> <UniProt (SwissProt) Recommended Name of Target Chain>
ALK tyrosine kinase receptor

> <UniProt (SwissProt) Entry Name of Target Chain>
ALK_HUMAN

> <UniProt (SwissProt) Primary ID of Target Chain>
Q9UM73

> <UniProt (SwissProt) Secondary ID(s) of Target Chain>
A6P4T4 A6P4V4 Q4ZFX9 Q53QQ6 Q53RZ4 Q59FI3 Q9Y4K6

> <UniProt (SwissProt) Alternative ID(s) of Target Chain>


> <UniProt (TrEMBL) Submitted Name of Target Chain>


> <UniProt (TrEMBL) Entry Name of Target Chain>


> <UniProt (TrEMBL) Primary ID of Target Chain>


> <UniProt (TrEMBL) Secondary ID(s) of Target Chain>


> <UniProt (TrEMBL) Alternative ID(s) of Target Chain>


$$$$

  SciTegic09261414532D

 32 35  0  0  0  0            999 V2000
    8.1893   -5.2576    0.0000 S   0  0
    7.7640   -5.9554    0.0000 O   0  0
    8.5809   -5.9749    0.0000 O   0  0
    5.3612   -5.1893    0.0000 C   0  0
    3.9251   -5.9743    0.0000 C   0  0
    3.9443   -5.1562    0.0000 C   0  0
    4.6623   -4.7637    0.0000 C   0  0
    5.3421   -6.0074    0.0000 C   0  0
    4.6241   -6.3999    0.0000 N   0  0
    3.2071   -6.3668    0.0000 N   0  0
    3.2453   -4.7306    0.0000 O   0  0
    3.2647   -3.9123    0.0000 C   0  0  2  0  0  0
    4.0021   -3.5582    0.0000 C   0  0
    2.5620   -3.4930    0.0000 C   0  0
    1.8475   -3.8919    0.0000 C   0  0
    1.1448   -3.4727    0.0000 C   0  0
    1.1566   -2.6544    0.0000 C   0  0
    1.8710   -2.2555    0.0000 C   0  0
    2.5737   -2.6748    0.0000 C   0  0
    0.4303   -3.8716    0.0000 F   0  0
    3.2872   -2.2764    0.0000 N   0  0
    4.0261   -2.6204    0.0000 N   0  0
    4.5816   -2.0210    0.0000 C   0  0
    4.1831   -1.3074    0.0000 C   0  0
    3.3815   -1.4660    0.0000 N   0  0
    6.0768   -4.7968    0.0000 C   0  0
    6.7750   -5.2235    0.0000 C   0  0
    7.4916   -4.8322    0.0000 C   0  0
    7.5111   -4.0144    0.0000 C   0  0
    6.8082   -3.5894    0.0000 C   0  0
    6.0945   -3.9831    0.0000 C   0  0
    8.9066   -4.8660    0.0000 C   0  0
  2  1  2  0
  1  3  2  0
  5  6  1  0
  6  7  2  0
  7  4  1  0
  4  8  2  0
  8  9  1  0
  5  9  2  0
  5 10  1  0
 12 13  1  1
 11 12  1  0
 14 15  1  0
 15 16  2  0
 16 17  1  0
 17 18  2  0
 18 19  1  0
 14 19  2  0
 16 20  1  0
 12 14  1  0
  6 11  1  0
 19 21  1  0
 21 22  1  0
 22 23  2  0
 23 24  1  0
 24 25  2  0
 25 21  1  0
 26 27  2  0
 27 28  1  0
 28 29  2  0
 29 30  1  0
 30 31  2  0
 31 26  1  0
  4 26  1  0
 28  1  1  0
  1 32  1  0
M  END
> <From>
www.bindingDB.org

> <BindingDB Reactant_set_id>
50103686

> <Ligand InChI>
InChI=1S/C22H20FN5O3S/c1-14(19-12-17(23)6-7-20(19)28-26-8-9-27-28)31-21-11-16(13-25-22(21)24)15-4-3-5-18(10-15)32(2,29)30/h3-14H,1-2H3,(H2,24,25)/t14-/m1/s1

> <Ligand InChI Key>
BCKZYTLSGWMFTG-CQSZACIVSA-N

> <BindingDB MonomerID>
50018823

> <BindingDB Ligand Name>
CHEMBL3286813

> <Target Name>
ALK tyrosine kinase receptor

> <Target Source Organism According to Curator or DataSource>
Homo sapiens

> <Ki (nM)>


> <IC50 (nM)>
 4.6

> <Kd (nM)>


> <EC50 (nM)>


> <kon (M-1-s-1)>


> <koff (s-1)>


> <pH>


> <Temp C>


> <Curation/DataSource>
ChEMBL

> <Article DOI>
10.1021/jm500261q

> <BindingDB Entry DOI>
10.7270/Q2K35W68

> <PMID>
24819116

> <PubChem AID>


> <Patent Number>


> <Authors>
Johnson, TW; Richardson, PF; Bailey, S; Brooun, A; Burke, BJ; Collins, MR; Cui, JJ; Deal, JG; Deng, YL; Dinh, D; Engstrom, LD; He, M; Hoffman, J; Hoffman, RL; Huang, Q; Kania, RS; Kath, JC; Lam, H; Lam, JL; Le, PT; Lingardo, L; Liu, W; McTigue, M; Palmer, CL; Sach, NW; Smeal, T; Smith, GL; Stewart, AE; Timofeevski, S; Zhu, H; Zhu, J; Zou, HY; Edwards, MP

> <Date of publication>
6/12/2014

> <Date in BindingDB>
2/11/2015

> <Institution>
Pfizer Inc

> <Link to Ligand in BindingDB>
http://www.bindingdb.org/bind/chemsearch/marvin/MolStructure.jsp?monomerid=50018823

> <Link to Ligand-Target Pair in BindingDB>
http://www.bindingdb.org/jsp/dbsearch/PrimarySearch_ki.jsp?energyterm=kJ/mole&tag=pol&polymerid=5809&target=ALK+tyrosine+kinase+receptor&column=ki&startPg=0&Increment=50&submit=Search

> <Link to Ligand-Target Pair in BindingDB>
http://www.bindingdb.org/jsp/dbsearch/PrimarySearch_ki.jsp?energyterm=kJ/mole&tag=r21&monomerid=50018823&enzyme=ALK+tyrosine+kinase+receptor&column=ki&startPg=0&Increment=50&submit=Search

> <Ligand HET ID in PDB>


> <PDB ID(s) for Ligand-Target Complex>


> <PubChem CID of Ligand>
73819543

> <PubChem SID of Ligand>
103929876

> <ChEBI ID of Ligand>


> <ChEMBL ID of Ligand>
CHEMBL3286813

> <DrugBank ID of Ligand>


> <IUPHAR_GRAC ID of Ligand>


> <KEGG ID of Ligand>


> <ZINC ID of Ligand>
ZINC34216072

> <Number of Protein Chains in Target (bigger than 1 implies a multichain complex)>
1

> <BindingDB Target Chain Sequence>
MGAIGLLWLLPLLLSTAAVGSGMGTGQRAGSPAAGPPLQPREPLSYSRLQRKSLAVDFVVPSLFRVYARDLLLPPSSSELKAGRPEARGSLALDCAPLLRLLGPAPGVSWTAGSPAPAEARTLSRVLKGGSVRKLRRAKQLVLELGEEAILEGCVGPPGEAAVGLLQFNLSELFSWWIRQGEGRLRIRLMPEKKASEVGREGRLSAAIRASQPRLLFQIFGTGHSSLESPTNMPSPSPDYFTWNLTWIMKDSFPFLSHRSRYGLECSFDFPCELEYSPPLHDLRNQSWSWRRIPSEEASQMDLLDGPGAERSKEMPRGSFLLLNTSADSKHTILSPWMRSSSEHCTLAVSVHRHLQPSGRYIAQLLPHNEAAREILLMPTPGKHGWTVLQGRIGRPDNPFRVALEYISSGNRSLSAVDFFALKNCSEGTSPGSKMALQSSFTCWNGTVLQLGQACDFHQDCAQGEDESQMCRKLPVGFYCNFEDGFCGWTQGTLSPHTPQWQVRTLKDARFQDHQDHALLLSTTDVPASESATVTSATFPAPIKSSPCELRMSWLIRGVLRGNVSLVLVENKTGKEQGRMVWHVAAYEGLSLWQWMVLPLLDVSDRFWLQMVAWWGQGSRAIVAFDNISISLDCYLTISGEDKILQNTAPKSRNLFERNPNKELKPGENSPRQTPIFDPTVHWLFTTCGASGPHGPTQAQCNNAYQNSNLSVEVGSEGPLKGIQIWKVPATDTYSISGYGAAGGKGGKNTMMRSHGVSVLGIFNLEKDDMLYILVGQQGEDACPSTNQLIQKVCIGENNVIEEEIRVNRSVHEWAGGGGGGGGATYVFKMKDGVPVPLIIAAGGGGRAYGAKTDTFHPERLENNSSVLGLNGNSGAAGGGGGWNDNTSLLWAGKSLQEGATGGHSCPQAMKKWGWETRGGFGGGGGGCSSGGGGGGYIGGNAASNNDPEMDGEDGVSFISPLGILYTPALKVMEGHGEVNIKHYLNCSHCEVDECHMDPESHKVICFCDHGTVLAEDGVSCIVSPTPEPHLPLSLILSVVTSALVAALVLAFSGIMIVYRRKHQELQAMQMELQSPEYKLSKLRTSTIMTDYNPNYCFAGKTSSISDLKEVPRKNITLIRGLGHGAFGEVYEGQVSGMPNDPSPLQVAVKTLPEVCSEQDELDFLMEALIISKFNHQNIVRCIGVSLQSLPRFILLELMAGGDLKSFLRETRPRPSQPSSLAMLDLLHVARDIACGCQYLEENHFIHRDIAARNCLLTCPGPGRVAKIGDFGMARDIYRASYYRKGGCAMLPVKWMPPEAFMEGIFTSKTDTWSFGVLLWEIFSLGYMPYPSKSNQEVLEFVTSGGRMDPPKNCPGPVYRIMTQCWQHQPEDRPNFAIILERIEYCTQDPDVINTALPIEYGPLVEEEEKVPVRPKDPEGVPPLLVSQQAKREEERSPAAPPPLPTTSSGKAAKKPTAAEISVRVPRGPAVEGGHVNMAFSQSNPPSELHKVHGSRNKPTSLWNPTYGSWFTEKPTKKNNPIAKKEPHDRGNLGLEGSCTVPPNVATGRLPGASLLLEPSSLTANMKEVPLFRLRHFPCGNVNYGYQQQGLPLEAATAPGAGHYEDTILKSKNSMNQPGP

> <PDB ID(s) of Target Chain>
2XB7,2XBA,3AOX,5FTO,5FTQ,6E0R,6EBW,6EDL,6MX8,7JY4,7JYR,7JYS,7JYT,7LS0,7MZW,7MZY,7N00,7NX3,7NX4,8ARJ

> <UniProt (SwissProt) Recommended Name of Target Chain>
ALK tyrosine kinase receptor

> <UniProt (SwissProt) Entry Name of Target Chain>
ALK_HUMAN

> <UniProt (SwissProt) Primary ID of Target Chain>
Q9UM73

> <UniProt (SwissProt) Secondary ID(s) of Target Chain>
A6P4T4 A6P4V4 Q4ZFX9 Q53QQ6 Q53RZ4 Q59FI3 Q9Y4K6

> <UniProt (SwissProt) Alternative ID(s) of Target Chain>


> <UniProt (TrEMBL) Submitted Name of Target Chain>


> <UniProt (TrEMBL) Entry Name of Target Chain>


> <UniProt (TrEMBL) Primary ID of Target Chain>


> <UniProt (TrEMBL) Secondary ID(s) of Target Chain>


> <UniProt (TrEMBL) Alternative ID(s) of Target Chain>


$$$$

  SciTegic09261414532D

 31 35  0  0  0  0            999 V2000
   15.5368   -5.1482    0.0000 O   0  0
   14.8166   -5.5427    0.0000 C   0  0  1  0  0  0
   14.1117   -5.1142    0.0000 C   0  0
   14.1361   -4.2910    0.0000 C   0  0
   13.4320   -3.8625    0.0000 C   0  0
   12.7108   -4.2571    0.0000 C   0  0
   12.6937   -5.0845    0.0000 C   0  0
   13.3985   -5.5092    0.0000 C   0  0
   14.8619   -3.8987    0.0000 C   0  0
   11.9707   -5.4816    0.0000 F   0  0
   18.4083   -4.3878    0.0000 C   0  0
   16.2229   -5.5760    0.0000 C   0  0
   17.6699   -5.6114    0.0000 C   0  0
   16.2230   -6.4014    0.0000 C   0  0
   16.9682   -5.1822    0.0000 C   0  0
   17.6502   -6.4355    0.0000 C   0  0
   16.9290   -6.8306    0.0000 N   0  0
   15.4975   -6.7965    0.0000 N   0  0
   18.3929   -5.2162    0.0000 C   0  0
   19.1687   -5.4850    0.0000 C   0  0
   19.6688   -4.8293    0.0000 N   0  0
   19.1989   -4.1562    0.0000 N   0  0
   14.3982   -6.2549    0.0000 C   0  0
   15.5774   -4.3392    0.0000 O   0  0
   14.8856   -3.0589    0.0000 N   0  0
   15.6247   -2.6594    0.0000 C   0  0
   14.1700   -2.6184    0.0000 C   0  0
   19.4776   -3.3635    0.0000 C   0  0
   19.4113   -6.2894    0.0000 C   0  0
   19.2200   -7.1059    0.0000 C   0  0
   20.0245   -6.8634    0.0000 C   0  0
 12  1  1  0
  1  2  1  0
  2  3  1  0
  3  4  2  0
  4  5  1  0
  5  6  2  0
  6  7  1  0
  7  8  2  0
  8  3  1  0
  4  9  1  0
  7 10  1  0
 14 12  1  0
 12 15  2  0
 15 13  1  0
 13 16  2  0
 16 17  1  0
 14 17  2  0
 14 18  1  0
 13 19  1  0
 11 19  2  0
 19 20  1  0
 20 21  2  0
 21 22  1  0
 22 11  1  0
  2 23  1  6
  9 24  2  0
  9 25  1  0
 25 26  1  0
 25 27  1  0
 26 11  1  0
 22 28  1  0
 20 29  1  0
 30 29  1  0
 31 30  1  0
 29 31  1  0
M  END
> <From>
www.bindingDB.org

> <BindingDB Reactant_set_id>
50103591

> <Ligand InChI>
InChI=1S/C23H24FN5O2/c1-12-17-9-15(24)6-7-16(17)23(30)28(2)11-18-20(21(13-4-5-13)27-29(18)3)14-8-19(31-12)22(25)26-10-14/h6-10,12-13H,4-5,11H2,1-3H3,(H2,25,26)/t12-/m1/s1

> <Ligand InChI Key>
SBEYSILWLYDNSN-GFCCVEGCSA-N

> <BindingDB MonomerID>
50018839

> <BindingDB Ligand Name>
CHEMBL3286829

> <Target Name>
ALK tyrosine kinase receptor

> <Target Source Organism According to Curator or DataSource>
Homo sapiens

> <Ki (nM)>


> <IC50 (nM)>
 5.8

> <Kd (nM)>


> <EC50 (nM)>


> <kon (M-1-s-1)>


> <koff (s-1)>


> <pH>


> <Temp C>


> <Curation/DataSource>
ChEMBL

> <Article DOI>
10.1021/jm500261q

> <BindingDB Entry DOI>
10.7270/Q2K35W68

> <PMID>
24819116

> <PubChem AID>


> <Patent Number>


> <Authors>
Johnson, TW; Richardson, PF; Bailey, S; Brooun, A; Burke, BJ; Collins, MR; Cui, JJ; Deal, JG; Deng, YL; Dinh, D; Engstrom, LD; He, M; Hoffman, J; Hoffman, RL; Huang, Q; Kania, RS; Kath, JC; Lam, H; Lam, JL; Le, PT; Lingardo, L; Liu, W; McTigue, M; Palmer, CL; Sach, NW; Smeal, T; Smith, GL; Stewart, AE; Timofeevski, S; Zhu, H; Zhu, J; Zou, HY; Edwards, MP

> <Date of publication>
6/12/2014

> <Date in BindingDB>
2/11/2015

> <Institution>
Pfizer Inc

> <Link to Ligand in BindingDB>
http://www.bindingdb.org/bind/chemsearch/marvin/MolStructure.jsp?monomerid=50018839

> <Link to Ligand-Target Pair in BindingDB>
http://www.bindingdb.org/jsp/dbsearch/PrimarySearch_ki.jsp?energyterm=kJ/mole&tag=pol&polymerid=5809&target=ALK+tyrosine+kinase+receptor&column=ki&startPg=0&Increment=50&submit=Search

> <Link to Ligand-Target Pair in BindingDB>
http://www.bindingdb.org/jsp/dbsearch/PrimarySearch_ki.jsp?energyterm=kJ/mole&tag=r21&monomerid=50018839&enzyme=ALK+tyrosine+kinase+receptor&column=ki&startPg=0&Increment=50&submit=Search

> <Ligand HET ID in PDB>
J99

> <PDB ID(s) for Ligand-Target Complex>
4CTC

> <PubChem CID of Ligand>
73819548

> <PubChem SID of Ligand>
103929892

> <ChEBI ID of Ligand>


> <ChEMBL ID of Ligand>
CHEMBL3286829

> <DrugBank ID of Ligand>


> <IUPHAR_GRAC ID of Ligand>


> <KEGG ID of Ligand>


> <ZINC ID of Ligand>
ZINC33891499

> <Number of Protein Chains in Target (bigger than 1 implies a multichain complex)>
1

> <BindingDB Target Chain Sequence>
MGAIGLLWLLPLLLSTAAVGSGMGTGQRAGSPAAGPPLQPREPLSYSRLQRKSLAVDFVVPSLFRVYARDLLLPPSSSELKAGRPEARGSLALDCAPLLRLLGPAPGVSWTAGSPAPAEARTLSRVLKGGSVRKLRRAKQLVLELGEEAILEGCVGPPGEAAVGLLQFNLSELFSWWIRQGEGRLRIRLMPEKKASEVGREGRLSAAIRASQPRLLFQIFGTGHSSLESPTNMPSPSPDYFTWNLTWIMKDSFPFLSHRSRYGLECSFDFPCELEYSPPLHDLRNQSWSWRRIPSEEASQMDLLDGPGAERSKEMPRGSFLLLNTSADSKHTILSPWMRSSSEHCTLAVSVHRHLQPSGRYIAQLLPHNEAAREILLMPTPGKHGWTVLQGRIGRPDNPFRVALEYISSGNRSLSAVDFFALKNCSEGTSPGSKMALQSSFTCWNGTVLQLGQACDFHQDCAQGEDESQMCRKLPVGFYCNFEDGFCGWTQGTLSPHTPQWQVRTLKDARFQDHQDHALLLSTTDVPASESATVTSATFPAPIKSSPCELRMSWLIRGVLRGNVSLVLVENKTGKEQGRMVWHVAAYEGLSLWQWMVLPLLDVSDRFWLQMVAWWGQGSRAIVAFDNISISLDCYLTISGEDKILQNTAPKSRNLFERNPNKELKPGENSPRQTPIFDPTVHWLFTTCGASGPHGPTQAQCNNAYQNSNLSVEVGSEGPLKGIQIWKVPATDTYSISGYGAAGGKGGKNTMMRSHGVSVLGIFNLEKDDMLYILVGQQGEDACPSTNQLIQKVCIGENNVIEEEIRVNRSVHEWAGGGGGGGGATYVFKMKDGVPVPLIIAAGGGGRAYGAKTDTFHPERLENNSSVLGLNGNSGAAGGGGGWNDNTSLLWAGKSLQEGATGGHSCPQAMKKWGWETRGGFGGGGGGCSSGGGGGGYIGGNAASNNDPEMDGEDGVSFISPLGILYTPALKVMEGHGEVNIKHYLNCSHCEVDECHMDPESHKVICFCDHGTVLAEDGVSCIVSPTPEPHLPLSLILSVVTSALVAALVLAFSGIMIVYRRKHQELQAMQMELQSPEYKLSKLRTSTIMTDYNPNYCFAGKTSSISDLKEVPRKNITLIRGLGHGAFGEVYEGQVSGMPNDPSPLQVAVKTLPEVCSEQDELDFLMEALIISKFNHQNIVRCIGVSLQSLPRFILLELMAGGDLKSFLRETRPRPSQPSSLAMLDLLHVARDIACGCQYLEENHFIHRDIAARNCLLTCPGPGRVAKIGDFGMARDIYRASYYRKGGCAMLPVKWMPPEAFMEGIFTSKTDTWSFGVLLWEIFSLGYMPYPSKSNQEVLEFVTSGGRMDPPKNCPGPVYRIMTQCWQHQPEDRPNFAIILERIEYCTQDPDVINTALPIEYGPLVEEEEKVPVRPKDPEGVPPLLVSQQAKREEERSPAAPPPLPTTSSGKAAKKPTAAEISVRVPRGPAVEGGHVNMAFSQSNPPSELHKVHGSRNKPTSLWNPTYGSWFTEKPTKKNNPIAKKEPHDRGNLGLEGSCTVPPNVATGRLPGASLLLEPSSLTANMKEVPLFRLRHFPCGNVNYGYQQQGLPLEAATAPGAGHYEDTILKSKNSMNQPGP

> <PDB ID(s) of Target Chain>
2XB7,2XBA,3AOX,5FTO,5FTQ,6E0R,6EBW,6EDL,6MX8,7JY4,7JYR,7JYS,7JYT,7LS0,7MZW,7MZY,7N00,7NX3,7NX4,8ARJ

> <UniProt (SwissProt) Recommended Name of Target Chain>
ALK tyrosine kinase receptor

> <UniProt (SwissProt) Entry Name of Target Chain>
ALK_HUMAN

> <UniProt (SwissProt) Primary ID of Target Chain>
Q9UM73

> <UniProt (SwissProt) Secondary ID(s) of Target Chain>
A6P4T4 A6P4V4 Q4ZFX9 Q53QQ6 Q53RZ4 Q59FI3 Q9Y4K6

> <UniProt (SwissProt) Alternative ID(s) of Target Chain>


> <UniProt (TrEMBL) Submitted Name of Target Chain>


> <UniProt (TrEMBL) Entry Name of Target Chain>


> <UniProt (TrEMBL) Primary ID of Target Chain>


> <UniProt (TrEMBL) Secondary ID(s) of Target Chain>


> <UniProt (TrEMBL) Alternative ID(s) of Target Chain>


$$$$

  SciTegic09261414532D

 30 33  0  0  0  0            999 V2000
   15.5386   -5.1488    0.0000 O   0  0
   14.8183   -5.5433    0.0000 C   0  0  1  0  0  0
   14.1133   -5.1148    0.0000 C   0  0
   14.1378   -4.2915    0.0000 C   0  0
   13.4336   -3.8630    0.0000 C   0  0
   12.7123   -4.2576    0.0000 C   0  0
   12.6952   -5.0851    0.0000 C   0  0
   13.4001   -5.5098    0.0000 C   0  0
   14.8637   -3.8992    0.0000 C   0  0
   11.9721   -5.4822    0.0000 F   0  0
   18.4105   -4.3883    0.0000 C   0  0
   16.2248   -5.5766    0.0000 C   0  0
   17.6719   -5.6120    0.0000 C   0  0
   16.2249   -6.4022    0.0000 C   0  0
   16.9702   -5.1828    0.0000 C   0  0
   17.6523   -6.4363    0.0000 C   0  0
   16.9309   -6.8314    0.0000 N   0  0
   15.4994   -6.7973    0.0000 N   0  0
   18.3950   -5.2168    0.0000 C   0  0
   19.1710   -5.4856    0.0000 C   0  0
   19.6711   -4.8299    0.0000 N   0  0
   19.2011   -4.1567    0.0000 N   0  0
   14.3999   -6.2556    0.0000 C   0  0
   15.5793   -4.3397    0.0000 O   0  0
   14.8873   -3.0593    0.0000 N   0  0
   15.6266   -2.6597    0.0000 C   0  0
   14.1716   -2.6188    0.0000 C   0  0
   20.5114   -4.8476    0.0000 C   0  0
   19.4137   -6.2884    0.0000 C   0  0
   19.6562   -7.0930    0.0000 N   0  0
 12  1  1  0
  1  2  1  0
  2  3  1  0
  3  4  2  0
  4  5  1  0
  5  6  2  0
  6  7  1  0
  7  8  2  0
  8  3  1  0
  4  9  1  0
  7 10  1  0
 14 12  1  0
 12 15  2  0
 15 13  1  0
 13 16  2  0
 16 17  1  0
 14 17  2  0
 14 18  1  0
 13 19  1  0
 11 19  1  0
 19 20  2  0
 20 21  1  0
 21 22  1  0
 22 11  2  0
  2 23  1  6
  9 24  2  0
  9 25  1  0
 25 26  1  0
 25 27  1  0
 26 11  1  0
 21 28  1  0
 29 30  3  0
 20 29  1  0
M  END
> <From>
www.bindingDB.org

> <BindingDB Reactant_set_id>
50103637

> <Ligand InChI>
InChI=1S/C21H19FN6O2/c1-11-15-7-13(22)4-5-14(15)21(29)27(2)10-16-19(17(8-23)28(3)26-16)12-6-18(30-11)20(24)25-9-12/h4-7,9,11H,10H2,1-3H3,(H2,24,25)/t11-/m1/s1

> <Ligand InChI Key>
IIXWYSCJSQVBQM-LLVKDONJSA-N

> <BindingDB MonomerID>
50018830

> <BindingDB Ligand Name>
CHEMBL3286830::US10543199, Compound PF-06463922::US10780082, Compound PF-06463922::US11517561, Compound PF-06463922

> <Target Name>
Tyrosine-protein kinase Fes/Fps

> <Target Source Organism According to Curator or DataSource>
Human

> <Ki (nM)>


> <IC50 (nM)>
 6.0

> <Kd (nM)>


> <EC50 (nM)>


> <kon (M-1-s-1)>


> <koff (s-1)>


> <pH>


> <Temp C>


> <Curation/DataSource>
ChEMBL

> <Article DOI>
10.1021/jm500261q

> <BindingDB Entry DOI>
10.7270/Q2K35W68

> <PMID>
24819116

> <PubChem AID>


> <Patent Number>


> <Authors>
Johnson, TW; Richardson, PF; Bailey, S; Brooun, A; Burke, BJ; Collins, MR; Cui, JJ; Deal, JG; Deng, YL; Dinh, D; Engstrom, LD; He, M; Hoffman, J; Hoffman, RL; Huang, Q; Kania, RS; Kath, JC; Lam, H; Lam, JL; Le, PT; Lingardo, L; Liu, W; McTigue, M; Palmer, CL; Sach, NW; Smeal, T; Smith, GL; Stewart, AE; Timofeevski, S; Zhu, H; Zhu, J; Zou, HY; Edwards, MP

> <Date of publication>
6/12/2014

> <Date in BindingDB>
2/11/2015

> <Institution>
Pfizer Inc

> <Link to Ligand in BindingDB>
http://www.bindingdb.org/bind/chemsearch/marvin/MolStructure.jsp?monomerid=50018830

> <Link to Ligand-Target Pair in BindingDB>
http://www.bindingdb.org/jsp/dbsearch/PrimarySearch_ki.jsp?energyterm=kJ/mole&tag=pol&polymerid=10232&target=Tyrosine-protein+kinase+Fes%2FFps&column=ki&startPg=0&Increment=50&submit=Search

> <Link to Ligand-Target Pair in BindingDB>
http://www.bindingdb.org/jsp/dbsearch/PrimarySearch_ki.jsp?energyterm=kJ/mole&tag=r21&monomerid=50018830&enzyme=Tyrosine-protein+kinase+Fes%2FFps&column=ki&startPg=0&Increment=50&submit=Search

> <Ligand HET ID in PDB>
53P

> <PDB ID(s) for Ligand-Target Complex>


> <PubChem CID of Ligand>
71731823

> <PubChem SID of Ligand>
103929883

> <ChEBI ID of Ligand>


> <ChEMBL ID of Ligand>
CHEMBL3286830

> <DrugBank ID of Ligand>


> <IUPHAR_GRAC ID of Ligand>


> <KEGG ID of Ligand>


> <ZINC ID of Ligand>
ZINC33891516

> <Number of Protein Chains in Target (bigger than 1 implies a multichain complex)>
1

> <BindingDB Target Chain Sequence>
MGFSSELCSPQGHGVLQQMQEAELRLLEGMRKWMAQRVKSDREYAGLLHHMSLQDSGGQSRAISPDSPISQSWAEITSQTEGLSRLLRQHAEDLNSGPLSKLSLLIRERQQLRKTYSEQWQQLQQELTKTHSQDIEKLKSQYRALARDSAQAKRKYQEASKDKDRDKAKDKYVRSLWKLFAHHNRYVLGVRAAQLHHQHHHQLLLPGLLRSLQDLHEEMACILKEILQEYLEISSLVQDEVVAIHREMAAAAARIQPEAEYQGFLRQYGSAPDVPPCVTFDESLLEEGEPLEPGELQLNELTVESVQHTLTSVTDELAVATEMVFRRQEMVTQLQQELRNEEENTHPRERVQLLGKRQVLQEALQGLQVALCSQAKLQAQQELLQTKLEHLGPGEPPPVLLLQDDRHSTSSSEQEREGGRTPTLEILKSHISGIFRPKFSLPPPLQLIPEVQKPLHEQLWYHGAIPRAEVAELLVHSGDFLVRESQGKQEYVLSVLWDGLPRHFIIQSLDNLYRLEGEGFPSIPLLIDHLLSTQQPLTKKSGVVLHRAVPKDKWVLNHEDLVLGEQIGRGNFGEVFSGRLRADNTLVAVKSCRETLPPDLKAKFLQEARILKQYSHPNIVRLIGVCTQKQPIYIVMELVQGGDFLTFLRTEGARLRVKTLLQMVGDAAAGMEYLESKCCIHRDLAARNCLVTEKNVLKISDFGMSREEADGVYAASGGLRQVPVKWTAPEALNYGRYSSESDVWSFGILLWETFSLGASPYPNLSNQQTREFVEKGGRLPCPELCPDAVFRLMEQCWAYEPGQRPSFSTIYQELQSIRKRHR

> <PDB ID(s) of Target Chain>
1WQU,2DCR,4DYL,6JMF

> <UniProt (SwissProt) Recommended Name of Target Chain>
Tyrosine-protein kinase Fes/Fps

> <UniProt (SwissProt) Entry Name of Target Chain>
FES_HUMAN

> <UniProt (SwissProt) Primary ID of Target Chain>
P07332

> <UniProt (SwissProt) Secondary ID(s) of Target Chain>
B2R6E6 B4DUD0 E9PC94 E9PC95 Q2VXS7 Q2VXS8 Q2VXT0 Q6GTU5

> <UniProt (SwissProt) Alternative ID(s) of Target Chain>


> <UniProt (TrEMBL) Submitted Name of Target Chain>


> <UniProt (TrEMBL) Entry Name of Target Chain>


> <UniProt (TrEMBL) Primary ID of Target Chain>


> <UniProt (TrEMBL) Secondary ID(s) of Target Chain>


> <UniProt (TrEMBL) Alternative ID(s) of Target Chain>


$$$$

  SciTegic09261414532D

 28 31  0  0  0  0            999 V2000
    4.7766   -4.0166    0.0000 O   0  0
    4.0760   -4.4003    0.0000 C   0  0
    3.3904   -3.9835    0.0000 C   0  0
    3.4142   -3.1829    0.0000 C   0  0
    2.7295   -2.7662    0.0000 C   0  0
    2.0279   -3.1499    0.0000 C   0  0
    2.0114   -3.9547    0.0000 C   0  0
    2.6968   -4.3677    0.0000 C   0  0
    4.1201   -2.8014    0.0000 C   0  0
    1.3081   -4.3409    0.0000 F   0  0
    7.5693   -3.2770    0.0000 C   0  0
    5.4438   -4.4326    0.0000 C   0  0
    6.8511   -4.4671    0.0000 C   0  0
    5.4440   -5.2355    0.0000 C   0  0
    6.1687   -4.0497    0.0000 C   0  0
    6.8320   -5.2686    0.0000 C   0  0
    6.1305   -5.6528    0.0000 N   0  0
    4.7383   -5.6197    0.0000 N   0  0
    7.5543   -4.0828    0.0000 C   0  0
    8.3089   -4.3441    0.0000 C   0  0
    8.7954   -3.7065    0.0000 N   0  0
    8.3382   -3.0517    0.0000 N   0  0
    8.5405   -5.1092    0.0000 C   0  0
    4.8160   -3.2297    0.0000 O   0  0
    4.1431   -1.9845    0.0000 N   0  0
    4.8620   -1.5960    0.0000 C   0  0
    3.4472   -1.5562    0.0000 C   0  0
    8.6093   -2.2808    0.0000 C   0  0
 12  1  1  0
  1  2  1  0
  2  3  1  0
  3  4  2  0
  4  5  1  0
  5  6  2  0
  6  7  1  0
  7  8  2  0
  8  3  1  0
  4  9  1  0
  7 10  1  0
 14 12  1  0
 12 15  2  0
 15 13  1  0
 13 16  2  0
 16 17  1  0
 14 17  2  0
 14 18  1  0
 13 19  1  0
 11 19  2  0
 19 20  1  0
 20 21  2  0
 21 22  1  0
 22 11  1  0
 20 23  1  0
  9 24  2  0
  9 25  1  0
 25 26  1  0
 25 27  1  0
 26 11  1  0
 22 28  1  0
M  END
> <From>
www.bindingDB.org

> <BindingDB Reactant_set_id>
50103694

> <Ligand InChI>
InChI=1S/C20H20FN5O2/c1-11-18-12-7-17(19(22)23-8-12)28-10-13-6-14(21)4-5-15(13)20(27)25(2)9-16(18)26(3)24-11/h4-8H,9-10H2,1-3H3,(H2,22,23)

> <Ligand InChI Key>
KTZLYUTXTQABMN-UHFFFAOYSA-N

> <BindingDB MonomerID>
50018832

> <BindingDB Ligand Name>
CHEMBL3286822

> <Target Name>
ALK tyrosine kinase receptor

> <Target Source Organism According to Curator or DataSource>
Homo sapiens

> <Ki (nM)>


> <IC50 (nM)>
 6.4

> <Kd (nM)>


> <EC50 (nM)>


> <kon (M-1-s-1)>


> <koff (s-1)>


> <pH>


> <Temp C>


> <Curation/DataSource>
ChEMBL

> <Article DOI>
10.1021/jm500261q

> <BindingDB Entry DOI>
10.7270/Q2K35W68

> <PMID>
24819116

> <PubChem AID>


> <Patent Number>


> <Authors>
Johnson, TW; Richardson, PF; Bailey, S; Brooun, A; Burke, BJ; Collins, MR; Cui, JJ; Deal, JG; Deng, YL; Dinh, D; Engstrom, LD; He, M; Hoffman, J; Hoffman, RL; Huang, Q; Kania, RS; Kath, JC; Lam, H; Lam, JL; Le, PT; Lingardo, L; Liu, W; McTigue, M; Palmer, CL; Sach, NW; Smeal, T; Smith, GL; Stewart, AE; Timofeevski, S; Zhu, H; Zhu, J; Zou, HY; Edwards, MP

> <Date of publication>
6/12/2014

> <Date in BindingDB>
2/11/2015

> <Institution>
Pfizer Inc

> <Link to Ligand in BindingDB>
http://www.bindingdb.org/bind/chemsearch/marvin/MolStructure.jsp?monomerid=50018832

> <Link to Ligand-Target Pair in BindingDB>
http://www.bindingdb.org/jsp/dbsearch/PrimarySearch_ki.jsp?energyterm=kJ/mole&tag=pol&polymerid=5809&target=ALK+tyrosine+kinase+receptor&column=ki&startPg=0&Increment=50&submit=Search

> <Link to Ligand-Target Pair in BindingDB>
http://www.bindingdb.org/jsp/dbsearch/PrimarySearch_ki.jsp?energyterm=kJ/mole&tag=r21&monomerid=50018832&enzyme=ALK+tyrosine+kinase+receptor&column=ki&startPg=0&Increment=50&submit=Search

> <Ligand HET ID in PDB>


> <PDB ID(s) for Ligand-Target Complex>


> <PubChem CID of Ligand>
71731827

> <PubChem SID of Ligand>
103929885

> <ChEBI ID of Ligand>


> <ChEMBL ID of Ligand>
CHEMBL3286822

> <DrugBank ID of Ligand>


> <IUPHAR_GRAC ID of Ligand>


> <KEGG ID of Ligand>


> <ZINC ID of Ligand>
ZINC34216070

> <Number of Protein Chains in Target (bigger than 1 implies a multichain complex)>
1

> <BindingDB Target Chain Sequence>
MGAIGLLWLLPLLLSTAAVGSGMGTGQRAGSPAAGPPLQPREPLSYSRLQRKSLAVDFVVPSLFRVYARDLLLPPSSSELKAGRPEARGSLALDCAPLLRLLGPAPGVSWTAGSPAPAEARTLSRVLKGGSVRKLRRAKQLVLELGEEAILEGCVGPPGEAAVGLLQFNLSELFSWWIRQGEGRLRIRLMPEKKASEVGREGRLSAAIRASQPRLLFQIFGTGHSSLESPTNMPSPSPDYFTWNLTWIMKDSFPFLSHRSRYGLECSFDFPCELEYSPPLHDLRNQSWSWRRIPSEEASQMDLLDGPGAERSKEMPRGSFLLLNTSADSKHTILSPWMRSSSEHCTLAVSVHRHLQPSGRYIAQLLPHNEAAREILLMPTPGKHGWTVLQGRIGRPDNPFRVALEYISSGNRSLSAVDFFALKNCSEGTSPGSKMALQSSFTCWNGTVLQLGQACDFHQDCAQGEDESQMCRKLPVGFYCNFEDGFCGWTQGTLSPHTPQWQVRTLKDARFQDHQDHALLLSTTDVPASESATVTSATFPAPIKSSPCELRMSWLIRGVLRGNVSLVLVENKTGKEQGRMVWHVAAYEGLSLWQWMVLPLLDVSDRFWLQMVAWWGQGSRAIVAFDNISISLDCYLTISGEDKILQNTAPKSRNLFERNPNKELKPGENSPRQTPIFDPTVHWLFTTCGASGPHGPTQAQCNNAYQNSNLSVEVGSEGPLKGIQIWKVPATDTYSISGYGAAGGKGGKNTMMRSHGVSVLGIFNLEKDDMLYILVGQQGEDACPSTNQLIQKVCIGENNVIEEEIRVNRSVHEWAGGGGGGGGATYVFKMKDGVPVPLIIAAGGGGRAYGAKTDTFHPERLENNSSVLGLNGNSGAAGGGGGWNDNTSLLWAGKSLQEGATGGHSCPQAMKKWGWETRGGFGGGGGGCSSGGGGGGYIGGNAASNNDPEMDGEDGVSFISPLGILYTPALKVMEGHGEVNIKHYLNCSHCEVDECHMDPESHKVICFCDHGTVLAEDGVSCIVSPTPEPHLPLSLILSVVTSALVAALVLAFSGIMIVYRRKHQELQAMQMELQSPEYKLSKLRTSTIMTDYNPNYCFAGKTSSISDLKEVPRKNITLIRGLGHGAFGEVYEGQVSGMPNDPSPLQVAVKTLPEVCSEQDELDFLMEALIISKFNHQNIVRCIGVSLQSLPRFILLELMAGGDLKSFLRETRPRPSQPSSLAMLDLLHVARDIACGCQYLEENHFIHRDIAARNCLLTCPGPGRVAKIGDFGMARDIYRASYYRKGGCAMLPVKWMPPEAFMEGIFTSKTDTWSFGVLLWEIFSLGYMPYPSKSNQEVLEFVTSGGRMDPPKNCPGPVYRIMTQCWQHQPEDRPNFAIILERIEYCTQDPDVINTALPIEYGPLVEEEEKVPVRPKDPEGVPPLLVSQQAKREEERSPAAPPPLPTTSSGKAAKKPTAAEISVRVPRGPAVEGGHVNMAFSQSNPPSELHKVHGSRNKPTSLWNPTYGSWFTEKPTKKNNPIAKKEPHDRGNLGLEGSCTVPPNVATGRLPGASLLLEPSSLTANMKEVPLFRLRHFPCGNVNYGYQQQGLPLEAATAPGAGHYEDTILKSKNSMNQPGP

> <PDB ID(s) of Target Chain>
2XB7,2XBA,3AOX,5FTO,5FTQ,6E0R,6EBW,6EDL,6MX8,7JY4,7JYR,7JYS,7JYT,7LS0,7MZW,7MZY,7N00,7NX3,7NX4,8ARJ

> <UniProt (SwissProt) Recommended Name of Target Chain>
ALK tyrosine kinase receptor

> <UniProt (SwissProt) Entry Name of Target Chain>
ALK_HUMAN

> <UniProt (SwissProt) Primary ID of Target Chain>
Q9UM73

> <UniProt (SwissProt) Secondary ID(s) of Target Chain>
A6P4T4 A6P4V4 Q4ZFX9 Q53QQ6 Q53RZ4 Q59FI3 Q9Y4K6

> <UniProt (SwissProt) Alternative ID(s) of Target Chain>


> <UniProt (TrEMBL) Submitted Name of Target Chain>


> <UniProt (TrEMBL) Entry Name of Target Chain>


> <UniProt (TrEMBL) Primary ID of Target Chain>


> <UniProt (TrEMBL) Secondary ID(s) of Target Chain>


> <UniProt (TrEMBL) Alternative ID(s) of Target Chain>


$$$$

  Mrv0541 11241420102D          

 33 36  0  0  0  0            999 V2000
    7.9746   -9.5163    0.0000 C   0  0  0  0  0  0  0  0  0  0  0  0
    7.9641   -8.6912    0.0000 C   0  0  0  0  0  0  0  0  0  0  0  0
    7.2465   -8.2898    0.0000 C   0  0  0  0  0  0  0  0  0  0  0  0
    6.5352   -8.7093    0.0000 C   0  0  0  0  0  0  0  0  0  0  0  0
    6.5458   -9.5345    0.0000 C   0  0  0  0  0  0  0  0  0  0  0  0
    7.2675   -9.9400    0.0000 N   0  0  0  0  0  0  0  0  0  0  0  0
    5.8177   -8.3081    0.0000 O   0  0  0  0  0  0  0  0  0  0  0  0
    5.8071   -7.4829    0.0000 C   0  0  2  0  0  0  0  0  0  0  0  0
    6.5142   -7.0592    0.0000 C   0  0  0  0  0  0  0  0  0  0  0  0
    5.0895   -7.0774    0.0000 C   0  0  0  0  0  0  0  0  0  0  0  0
    5.0789   -6.2523    0.0000 C   0  0  0  0  0  0  0  0  0  0  0  0
    4.3572   -5.8510    0.0000 C   0  0  0  0  0  0  0  0  0  0  0  0
    3.6460   -6.2706    0.0000 C   0  0  0  0  0  0  0  0  0  0  0  0
    3.6565   -7.0957    0.0000 C   0  0  0  0  0  0  0  0  0  0  0  0
    4.3783   -7.5012    0.0000 C   0  0  0  0  0  0  0  0  0  0  0  0
    5.8642   -5.0133    0.0000 N   0  0  0  0  0  0  0  0  0  0  0  0
    5.7860   -5.8328    0.0000 N   0  0  0  0  0  0  0  0  0  0  0  0
    6.5410   -6.1550    0.0000 N   0  0  0  0  0  0  0  0  0  0  0  0
    7.0878   -5.5386    0.0000 C   0  0  0  0  0  0  0  0  0  0  0  0
    6.6681   -4.8315    0.0000 C   0  0  0  0  0  0  0  0  0  0  0  0
    2.9494   -7.5194    0.0000 F   0  0  0  0  0  0  0  0  0  0  0  0
    5.8387   -9.9583    0.0000 N   0  0  0  0  0  0  0  0  0  0  0  0
    8.6719   -8.2709    0.0000 C   0  0  0  0  0  0  0  0  0  0  0  0
    9.4298   -8.5915    0.0000 C   0  0  0  0  0  0  0  0  0  0  0  0
    9.9733   -7.9743    0.0000 N   0  0  0  0  0  0  0  0  0  0  0  0
    9.5488   -7.2665    0.0000 C   0  0  0  0  0  0  0  0  0  0  0  0
    8.7457   -7.4489    0.0000 S   0  0  0  0  0  0  0  0  0  0  0  0
    9.6132   -9.3958    0.0000 C   0  0  0  0  0  0  0  0  0  0  0  0
    9.8713   -6.5114    0.0000 C   0  0  2  0  0  0  0  0  0  0  0  0
   10.6863   -6.4132    0.0000 C   0  0  0  0  0  0  0  0  0  0  0  0
   11.0088   -5.6581    0.0000 O   0  0  0  0  0  0  0  0  0  0  0  0
    9.0726   -6.2944    0.0000 C   0  0  0  0  0  0  0  0  0  0  0  0
    9.8646   -5.6891    0.0000 O   0  0  0  0  0  0  0  0  0  0  0  0
  1  2  2  0  0  0  0
  2  3  1  0  0  0  0
  3  4  2  0  0  0  0
  4  5  1  0  0  0  0
  5  6  2  0  0  0  0
  1  6  1  0  0  0  0
  8  9  1  1  0  0  0
  8  7  1  0  0  0  0
 10 11  2  0  0  0  0
 11 12  1  0  0  0  0
 12 13  2  0  0  0  0
 13 14  1  0  0  0  0
 14 15  2  0  0  0  0
 10 15  1  0  0  0  0
 16 17  1  0  0  0  0
 17 18  1  0  0  0  0
 18 19  2  0  0  0  0
 19 20  1  0  0  0  0
 16 20  2  0  0  0  0
 11 17  1  0  0  0  0
 14 21  1  0  0  0  0
  8 10  1  0  0  0  0
  4  7  1  0  0  0  0
  5 22  1  0  0  0  0
  2 23  1  0  0  0  0
 23 24  2  0  0  0  0
 24 25  1  0  0  0  0
 25 26  2  0  0  0  0
 26 27  1  0  0  0  0
 27 23  1  0  0  0  0
 24 28  1  0  0  0  0
 29 26  1  0  0  0  0
 29 30  1  0  0  0  0
 30 31  1  0  0  0  0
 29 32  1  1  0  0  0
 29 33  1  6  0  0  0
M  END
> <From>
www.bindingDB.org

> <BindingDB Reactant_set_id>
50103702

> <Ligand InChI>
InChI=1S/C22H23FN6O3S/c1-12-19(33-21(28-12)22(3,31)11-30)14-8-18(20(24)25-10-14)32-13(2)16-9-15(23)4-5-17(16)29-26-6-7-27-29/h4-10,13,30-31H,11H2,1-3H3,(H2,24,25)/t13-,22-/m1/s1

> <Ligand InChI Key>
DIXMBHMNEHPFCX-MCMMXHMISA-N

> <BindingDB MonomerID>
50448785

> <BindingDB Ligand Name>
CHEMBL3128069

> <Target Name>
ALK tyrosine kinase receptor

> <Target Source Organism According to Curator or DataSource>
Homo sapiens

> <Ki (nM)>


> <IC50 (nM)>
 6.6

> <Kd (nM)>


> <EC50 (nM)>


> <kon (M-1-s-1)>


> <koff (s-1)>


> <pH>


> <Temp C>


> <Curation/DataSource>
ChEMBL

> <Article DOI>
10.1021/jm500261q

> <BindingDB Entry DOI>
10.7270/Q2K35W68

> <PMID>
24819116

> <PubChem AID>


> <Patent Number>


> <Authors>
Johnson, TW; Richardson, PF; Bailey, S; Brooun, A; Burke, BJ; Collins, MR; Cui, JJ; Deal, JG; Deng, YL; Dinh, D; Engstrom, LD; He, M; Hoffman, J; Hoffman, RL; Huang, Q; Kania, RS; Kath, JC; Lam, H; Lam, JL; Le, PT; Lingardo, L; Liu, W; McTigue, M; Palmer, CL; Sach, NW; Smeal, T; Smith, GL; Stewart, AE; Timofeevski, S; Zhu, H; Zhu, J; Zou, HY; Edwards, MP

> <Date of publication>
6/12/2014

> <Date in BindingDB>
2/11/2015

> <Institution>
Pfizer Inc

> <Link to Ligand in BindingDB>
http://www.bindingdb.org/bind/chemsearch/marvin/MolStructure.jsp?monomerid=50448785

> <Link to Ligand-Target Pair in BindingDB>
http://www.bindingdb.org/jsp/dbsearch/PrimarySearch_ki.jsp?energyterm=kJ/mole&tag=pol&polymerid=5809&target=ALK+tyrosine+kinase+receptor&column=ki&startPg=0&Increment=50&submit=Search

> <Link to Ligand-Target Pair in BindingDB>
http://www.bindingdb.org/jsp/dbsearch/PrimarySearch_ki.jsp?energyterm=kJ/mole&tag=r21&monomerid=50448785&enzyme=ALK+tyrosine+kinase+receptor&column=ki&startPg=0&Increment=50&submit=Search

> <Ligand HET ID in PDB>


> <PDB ID(s) for Ligand-Target Complex>


> <PubChem CID of Ligand>
72710568

> <PubChem SID of Ligand>
194946681

> <ChEBI ID of Ligand>


> <ChEMBL ID of Ligand>
CHEMBL3128069

> <DrugBank ID of Ligand>


> <IUPHAR_GRAC ID of Ligand>


> <KEGG ID of Ligand>


> <ZINC ID of Ligand>


> <Number of Protein Chains in Target (bigger than 1 implies a multichain complex)>
1

> <BindingDB Target Chain Sequence>
MGAIGLLWLLPLLLSTAAVGSGMGTGQRAGSPAAGPPLQPREPLSYSRLQRKSLAVDFVVPSLFRVYARDLLLPPSSSELKAGRPEARGSLALDCAPLLRLLGPAPGVSWTAGSPAPAEARTLSRVLKGGSVRKLRRAKQLVLELGEEAILEGCVGPPGEAAVGLLQFNLSELFSWWIRQGEGRLRIRLMPEKKASEVGREGRLSAAIRASQPRLLFQIFGTGHSSLESPTNMPSPSPDYFTWNLTWIMKDSFPFLSHRSRYGLECSFDFPCELEYSPPLHDLRNQSWSWRRIPSEEASQMDLLDGPGAERSKEMPRGSFLLLNTSADSKHTILSPWMRSSSEHCTLAVSVHRHLQPSGRYIAQLLPHNEAAREILLMPTPGKHGWTVLQGRIGRPDNPFRVALEYISSGNRSLSAVDFFALKNCSEGTSPGSKMALQSSFTCWNGTVLQLGQACDFHQDCAQGEDESQMCRKLPVGFYCNFEDGFCGWTQGTLSPHTPQWQVRTLKDARFQDHQDHALLLSTTDVPASESATVTSATFPAPIKSSPCELRMSWLIRGVLRGNVSLVLVENKTGKEQGRMVWHVAAYEGLSLWQWMVLPLLDVSDRFWLQMVAWWGQGSRAIVAFDNISISLDCYLTISGEDKILQNTAPKSRNLFERNPNKELKPGENSPRQTPIFDPTVHWLFTTCGASGPHGPTQAQCNNAYQNSNLSVEVGSEGPLKGIQIWKVPATDTYSISGYGAAGGKGGKNTMMRSHGVSVLGIFNLEKDDMLYILVGQQGEDACPSTNQLIQKVCIGENNVIEEEIRVNRSVHEWAGGGGGGGGATYVFKMKDGVPVPLIIAAGGGGRAYGAKTDTFHPERLENNSSVLGLNGNSGAAGGGGGWNDNTSLLWAGKSLQEGATGGHSCPQAMKKWGWETRGGFGGGGGGCSSGGGGGGYIGGNAASNNDPEMDGEDGVSFISPLGILYTPALKVMEGHGEVNIKHYLNCSHCEVDECHMDPESHKVICFCDHGTVLAEDGVSCIVSPTPEPHLPLSLILSVVTSALVAALVLAFSGIMIVYRRKHQELQAMQMELQSPEYKLSKLRTSTIMTDYNPNYCFAGKTSSISDLKEVPRKNITLIRGLGHGAFGEVYEGQVSGMPNDPSPLQVAVKTLPEVCSEQDELDFLMEALIISKFNHQNIVRCIGVSLQSLPRFILLELMAGGDLKSFLRETRPRPSQPSSLAMLDLLHVARDIACGCQYLEENHFIHRDIAARNCLLTCPGPGRVAKIGDFGMARDIYRASYYRKGGCAMLPVKWMPPEAFMEGIFTSKTDTWSFGVLLWEIFSLGYMPYPSKSNQEVLEFVTSGGRMDPPKNCPGPVYRIMTQCWQHQPEDRPNFAIILERIEYCTQDPDVINTALPIEYGPLVEEEEKVPVRPKDPEGVPPLLVSQQAKREEERSPAAPPPLPTTSSGKAAKKPTAAEISVRVPRGPAVEGGHVNMAFSQSNPPSELHKVHGSRNKPTSLWNPTYGSWFTEKPTKKNNPIAKKEPHDRGNLGLEGSCTVPPNVATGRLPGASLLLEPSSLTANMKEVPLFRLRHFPCGNVNYGYQQQGLPLEAATAPGAGHYEDTILKSKNSMNQPGP

> <PDB ID(s) of Target Chain>
2XB7,2XBA,3AOX,5FTO,5FTQ,6E0R,6EBW,6EDL,6MX8,7JY4,7JYR,7JYS,7JYT,7LS0,7MZW,7MZY,7N00,7NX3,7NX4,8ARJ

> <UniProt (SwissProt) Recommended Name of Target Chain>
ALK tyrosine kinase receptor

> <UniProt (SwissProt) Entry Name of Target Chain>
ALK_HUMAN

> <UniProt (SwissProt) Primary ID of Target Chain>
Q9UM73

> <UniProt (SwissProt) Secondary ID(s) of Target Chain>
A6P4T4 A6P4V4 Q4ZFX9 Q53QQ6 Q53RZ4 Q59FI3 Q9Y4K6

> <UniProt (SwissProt) Alternative ID(s) of Target Chain>


> <UniProt (TrEMBL) Submitted Name of Target Chain>


> <UniProt (TrEMBL) Entry Name of Target Chain>


> <UniProt (TrEMBL) Primary ID of Target Chain>


> <UniProt (TrEMBL) Secondary ID(s) of Target Chain>


> <UniProt (TrEMBL) Alternative ID(s) of Target Chain>


$$$$

  SciTegic09261414532D

 30 33  0  0  0  0            999 V2000
   15.5386   -5.1488    0.0000 O   0  0
   14.8183   -5.5433    0.0000 C   0  0  1  0  0  0
   14.1133   -5.1148    0.0000 C   0  0
   14.1378   -4.2915    0.0000 C   0  0
   13.4336   -3.8630    0.0000 C   0  0
   12.7123   -4.2576    0.0000 C   0  0
   12.6952   -5.0851    0.0000 C   0  0
   13.4001   -5.5098    0.0000 C   0  0
   14.8637   -3.8992    0.0000 C   0  0
   11.9721   -5.4822    0.0000 F   0  0
   18.4105   -4.3883    0.0000 C   0  0
   16.2248   -5.5766    0.0000 C   0  0
   17.6719   -5.6120    0.0000 C   0  0
   16.2249   -6.4022    0.0000 C   0  0
   16.9702   -5.1828    0.0000 C   0  0
   17.6523   -6.4363    0.0000 C   0  0
   16.9309   -6.8314    0.0000 N   0  0
   15.4994   -6.7973    0.0000 N   0  0
   18.3950   -5.2168    0.0000 C   0  0
   19.1710   -5.4856    0.0000 C   0  0
   19.6711   -4.8299    0.0000 N   0  0
   19.2011   -4.1567    0.0000 N   0  0
   14.3999   -6.2556    0.0000 C   0  0
   15.5793   -4.3397    0.0000 O   0  0
   14.8873   -3.0593    0.0000 N   0  0
   15.6266   -2.6597    0.0000 C   0  0
   14.1716   -2.6188    0.0000 C   0  0
   20.5114   -4.8476    0.0000 C   0  0
   19.4137   -6.2884    0.0000 C   0  0
   19.6562   -7.0930    0.0000 N   0  0
 12  1  1  0
  1  2  1  0
  2  3  1  0
  3  4  2  0
  4  5  1  0
  5  6  2  0
  6  7  1  0
  7  8  2  0
  8  3  1  0
  4  9  1  0
  7 10  1  0
 14 12  1  0
 12 15  2  0
 15 13  1  0
 13 16  2  0
 16 17  1  0
 14 17  2  0
 14 18  1  0
 13 19  1  0
 11 19  1  0
 19 20  2  0
 20 21  1  0
 21 22  1  0
 22 11  2  0
  2 23  1  6
  9 24  2  0
  9 25  1  0
 25 26  1  0
 25 27  1  0
 26 11  1  0
 21 28  1  0
 29 30  3  0
 20 29  1  0
M  END
> <From>
www.bindingDB.org

> <BindingDB Reactant_set_id>
50103624

> <Ligand InChI>
InChI=1S/C21H19FN6O2/c1-11-15-7-13(22)4-5-14(15)21(29)27(2)10-16-19(17(8-23)28(3)26-16)12-6-18(30-11)20(24)25-9-12/h4-7,9,11H,10H2,1-3H3,(H2,24,25)/t11-/m1/s1

> <Ligand InChI Key>
IIXWYSCJSQVBQM-LLVKDONJSA-N

> <BindingDB MonomerID>
50018830

> <BindingDB Ligand Name>
CHEMBL3286830::US10543199, Compound PF-06463922::US10780082, Compound PF-06463922::US11517561, Compound PF-06463922

> <Target Name>
ALK tyrosine kinase receptor

> <Target Source Organism According to Curator or DataSource>
Homo sapiens

> <Ki (nM)>


> <IC50 (nM)>
 9.0

> <Kd (nM)>


> <EC50 (nM)>


> <kon (M-1-s-1)>


> <koff (s-1)>


> <pH>


> <Temp C>


> <Curation/DataSource>
ChEMBL

> <Article DOI>
10.1021/jm500261q

> <BindingDB Entry DOI>
10.7270/Q2K35W68

> <PMID>
24819116

> <PubChem AID>


> <Patent Number>


> <Authors>
Johnson, TW; Richardson, PF; Bailey, S; Brooun, A; Burke, BJ; Collins, MR; Cui, JJ; Deal, JG; Deng, YL; Dinh, D; Engstrom, LD; He, M; Hoffman, J; Hoffman, RL; Huang, Q; Kania, RS; Kath, JC; Lam, H; Lam, JL; Le, PT; Lingardo, L; Liu, W; McTigue, M; Palmer, CL; Sach, NW; Smeal, T; Smith, GL; Stewart, AE; Timofeevski, S; Zhu, H; Zhu, J; Zou, HY; Edwards, MP

> <Date of publication>
6/12/2014

> <Date in BindingDB>
2/11/2015

> <Institution>
Pfizer Inc

> <Link to Ligand in BindingDB>
http://www.bindingdb.org/bind/chemsearch/marvin/MolStructure.jsp?monomerid=50018830

> <Link to Ligand-Target Pair in BindingDB>
http://www.bindingdb.org/jsp/dbsearch/PrimarySearch_ki.jsp?energyterm=kJ/mole&tag=pol&polymerid=5809&target=ALK+tyrosine+kinase+receptor&column=ki&startPg=0&Increment=50&submit=Search

> <Link to Ligand-Target Pair in BindingDB>
http://www.bindingdb.org/jsp/dbsearch/PrimarySearch_ki.jsp?energyterm=kJ/mole&tag=r21&monomerid=50018830&enzyme=ALK+tyrosine+kinase+receptor&column=ki&startPg=0&Increment=50&submit=Search

> <Ligand HET ID in PDB>
53P

> <PDB ID(s) for Ligand-Target Complex>


> <PubChem CID of Ligand>
71731823

> <PubChem SID of Ligand>
103929883

> <ChEBI ID of Ligand>


> <ChEMBL ID of Ligand>
CHEMBL3286830

> <DrugBank ID of Ligand>


> <IUPHAR_GRAC ID of Ligand>


> <KEGG ID of Ligand>


> <ZINC ID of Ligand>
ZINC33891516

> <Number of Protein Chains in Target (bigger than 1 implies a multichain complex)>
1

> <BindingDB Target Chain Sequence>
MGAIGLLWLLPLLLSTAAVGSGMGTGQRAGSPAAGPPLQPREPLSYSRLQRKSLAVDFVVPSLFRVYARDLLLPPSSSELKAGRPEARGSLALDCAPLLRLLGPAPGVSWTAGSPAPAEARTLSRVLKGGSVRKLRRAKQLVLELGEEAILEGCVGPPGEAAVGLLQFNLSELFSWWIRQGEGRLRIRLMPEKKASEVGREGRLSAAIRASQPRLLFQIFGTGHSSLESPTNMPSPSPDYFTWNLTWIMKDSFPFLSHRSRYGLECSFDFPCELEYSPPLHDLRNQSWSWRRIPSEEASQMDLLDGPGAERSKEMPRGSFLLLNTSADSKHTILSPWMRSSSEHCTLAVSVHRHLQPSGRYIAQLLPHNEAAREILLMPTPGKHGWTVLQGRIGRPDNPFRVALEYISSGNRSLSAVDFFALKNCSEGTSPGSKMALQSSFTCWNGTVLQLGQACDFHQDCAQGEDESQMCRKLPVGFYCNFEDGFCGWTQGTLSPHTPQWQVRTLKDARFQDHQDHALLLSTTDVPASESATVTSATFPAPIKSSPCELRMSWLIRGVLRGNVSLVLVENKTGKEQGRMVWHVAAYEGLSLWQWMVLPLLDVSDRFWLQMVAWWGQGSRAIVAFDNISISLDCYLTISGEDKILQNTAPKSRNLFERNPNKELKPGENSPRQTPIFDPTVHWLFTTCGASGPHGPTQAQCNNAYQNSNLSVEVGSEGPLKGIQIWKVPATDTYSISGYGAAGGKGGKNTMMRSHGVSVLGIFNLEKDDMLYILVGQQGEDACPSTNQLIQKVCIGENNVIEEEIRVNRSVHEWAGGGGGGGGATYVFKMKDGVPVPLIIAAGGGGRAYGAKTDTFHPERLENNSSVLGLNGNSGAAGGGGGWNDNTSLLWAGKSLQEGATGGHSCPQAMKKWGWETRGGFGGGGGGCSSGGGGGGYIGGNAASNNDPEMDGEDGVSFISPLGILYTPALKVMEGHGEVNIKHYLNCSHCEVDECHMDPESHKVICFCDHGTVLAEDGVSCIVSPTPEPHLPLSLILSVVTSALVAALVLAFSGIMIVYRRKHQELQAMQMELQSPEYKLSKLRTSTIMTDYNPNYCFAGKTSSISDLKEVPRKNITLIRGLGHGAFGEVYEGQVSGMPNDPSPLQVAVKTLPEVCSEQDELDFLMEALIISKFNHQNIVRCIGVSLQSLPRFILLELMAGGDLKSFLRETRPRPSQPSSLAMLDLLHVARDIACGCQYLEENHFIHRDIAARNCLLTCPGPGRVAKIGDFGMARDIYRASYYRKGGCAMLPVKWMPPEAFMEGIFTSKTDTWSFGVLLWEIFSLGYMPYPSKSNQEVLEFVTSGGRMDPPKNCPGPVYRIMTQCWQHQPEDRPNFAIILERIEYCTQDPDVINTALPIEYGPLVEEEEKVPVRPKDPEGVPPLLVSQQAKREEERSPAAPPPLPTTSSGKAAKKPTAAEISVRVPRGPAVEGGHVNMAFSQSNPPSELHKVHGSRNKPTSLWNPTYGSWFTEKPTKKNNPIAKKEPHDRGNLGLEGSCTVPPNVATGRLPGASLLLEPSSLTANMKEVPLFRLRHFPCGNVNYGYQQQGLPLEAATAPGAGHYEDTILKSKNSMNQPGP

> <PDB ID(s) of Target Chain>
2XB7,2XBA,3AOX,5FTO,5FTQ,6E0R,6EBW,6EDL,6MX8,7JY4,7JYR,7JYS,7JYT,7LS0,7MZW,7MZY,7N00,7NX3,7NX4,8ARJ

> <UniProt (SwissProt) Recommended Name of Target Chain>
ALK tyrosine kinase receptor

> <UniProt (SwissProt) Entry Name of Target Chain>
ALK_HUMAN

> <UniProt (SwissProt) Primary ID of Target Chain>
Q9UM73

> <UniProt (SwissProt) Secondary ID(s) of Target Chain>
A6P4T4 A6P4V4 Q4ZFX9 Q53QQ6 Q53RZ4 Q59FI3 Q9Y4K6

> <UniProt (SwissProt) Alternative ID(s) of Target Chain>


> <UniProt (TrEMBL) Submitted Name of Target Chain>


> <UniProt (TrEMBL) Entry Name of Target Chain>


> <UniProt (TrEMBL) Primary ID of Target Chain>


> <UniProt (TrEMBL) Secondary ID(s) of Target Chain>


> <UniProt (TrEMBL) Alternative ID(s) of Target Chain>


$$$$

  SciTegic09261414532D

 30 33  0  0  0  0            999 V2000
   22.0185  -11.1211    0.0000 C   0  0
   21.2964  -11.5122    0.0000 C   0  0
   19.8604  -12.2972    0.0000 C   0  0
   19.8795  -11.4791    0.0000 C   0  0
   20.5975  -11.0866    0.0000 N   0  0
   21.2773  -12.3303    0.0000 C   0  0
   20.5593  -12.7228    0.0000 N   0  0
   19.1423  -12.6897    0.0000 N   0  0
   19.1806  -11.0535    0.0000 O   0  0
   19.1999  -10.2352    0.0000 C   0  0  2  0  0  0
   19.9373   -9.8811    0.0000 C   0  0
   18.4972   -9.8159    0.0000 C   0  0
   17.7828  -10.2148    0.0000 C   0  0
   17.0800   -9.7956    0.0000 C   0  0
   17.0918   -8.9774    0.0000 C   0  0
   17.8063   -8.5784    0.0000 C   0  0
   18.5090   -8.9977    0.0000 C   0  0
   16.3656  -10.1945    0.0000 F   0  0
   19.2225   -8.5993    0.0000 N   0  0
   19.9613   -8.9433    0.0000 N   0  0
   20.5168   -8.3439    0.0000 C   0  0
   20.1184   -7.6303    0.0000 C   0  0
   19.3167   -7.7889    0.0000 N   0  0
   22.7158  -11.5524    0.0000 C   0  0
   23.4374  -11.1620    0.0000 N   0  0
   23.4602  -10.3402    0.0000 C   0  0
   22.7555   -9.9105    0.0000 C   0  0
   22.0368  -10.3033    0.0000 C   0  0
   22.6921  -12.3693    0.0000 O   0  0
   21.9729  -12.7572    0.0000 C   0  0
  2  1  1  0
  3  4  1  0
  4  5  2  0
  5  2  1  0
  2  6  2  0
  6  7  1  0
  3  7  2  0
  3  8  1  0
 10 11  1  1
  9 10  1  0
 12 13  1  0
 13 14  2  0
 14 15  1  0
 15 16  2  0
 16 17  1  0
 12 17  2  0
 14 18  1  0
 10 12  1  0
  4  9  1  0
 17 19  1  0
 19 20  1  0
 20 21  2  0
 21 22  1  0
 22 23  2  0
 23 19  1  0
  1 24  2  0
 24 25  1  0
 25 26  2  0
 26 27  1  0
 27 28  2  0
 28  1  1  0
 24 29  1  0
 29 30  1  0
M  END
> <From>
www.bindingDB.org

> <BindingDB Reactant_set_id>
50103684

> <Ligand InChI>
InChI=1S/C20H18FN7O2/c1-12(15-10-13(21)5-6-17(15)28-25-8-9-26-28)30-20-18(22)24-11-16(27-20)14-4-3-7-23-19(14)29-2/h3-12H,1-2H3,(H2,22,24)/t12-/m1/s1

> <Ligand InChI Key>
RXGKFHNEIKQBGI-GFCCVEGCSA-N

> <BindingDB MonomerID>
50018821

> <BindingDB Ligand Name>
CHEMBL3286811

> <Target Name>
ALK tyrosine kinase receptor

> <Target Source Organism According to Curator or DataSource>
Homo sapiens

> <Ki (nM)>


> <IC50 (nM)>
 9.7

> <Kd (nM)>


> <EC50 (nM)>


> <kon (M-1-s-1)>


> <koff (s-1)>


> <pH>


> <Temp C>


> <Curation/DataSource>
ChEMBL

> <Article DOI>
10.1021/jm500261q

> <BindingDB Entry DOI>
10.7270/Q2K35W68

> <PMID>
24819116

> <PubChem AID>


> <Patent Number>


> <Authors>
Johnson, TW; Richardson, PF; Bailey, S; Brooun, A; Burke, BJ; Collins, MR; Cui, JJ; Deal, JG; Deng, YL; Dinh, D; Engstrom, LD; He, M; Hoffman, J; Hoffman, RL; Huang, Q; Kania, RS; Kath, JC; Lam, H; Lam, JL; Le, PT; Lingardo, L; Liu, W; McTigue, M; Palmer, CL; Sach, NW; Smeal, T; Smith, GL; Stewart, AE; Timofeevski, S; Zhu, H; Zhu, J; Zou, HY; Edwards, MP

> <Date of publication>
6/12/2014

> <Date in BindingDB>
2/11/2015

> <Institution>
Pfizer Inc

> <Link to Ligand in BindingDB>
http://www.bindingdb.org/bind/chemsearch/marvin/MolStructure.jsp?monomerid=50018821

> <Link to Ligand-Target Pair in BindingDB>
http://www.bindingdb.org/jsp/dbsearch/PrimarySearch_ki.jsp?energyterm=kJ/mole&tag=pol&polymerid=5809&target=ALK+tyrosine+kinase+receptor&column=ki&startPg=0&Increment=50&submit=Search

> <Link to Ligand-Target Pair in BindingDB>
http://www.bindingdb.org/jsp/dbsearch/PrimarySearch_ki.jsp?energyterm=kJ/mole&tag=r21&monomerid=50018821&enzyme=ALK+tyrosine+kinase+receptor&column=ki&startPg=0&Increment=50&submit=Search

> <Ligand HET ID in PDB>


> <PDB ID(s) for Ligand-Target Complex>


> <PubChem CID of Ligand>
89713230

> <PubChem SID of Ligand>
103929874

> <ChEBI ID of Ligand>


> <ChEMBL ID of Ligand>
CHEMBL3286811

> <DrugBank ID of Ligand>


> <IUPHAR_GRAC ID of Ligand>


> <KEGG ID of Ligand>


> <ZINC ID of Ligand>
ZINC33891536

> <Number of Protein Chains in Target (bigger than 1 implies a multichain complex)>
1

> <BindingDB Target Chain Sequence>
MGAIGLLWLLPLLLSTAAVGSGMGTGQRAGSPAAGPPLQPREPLSYSRLQRKSLAVDFVVPSLFRVYARDLLLPPSSSELKAGRPEARGSLALDCAPLLRLLGPAPGVSWTAGSPAPAEARTLSRVLKGGSVRKLRRAKQLVLELGEEAILEGCVGPPGEAAVGLLQFNLSELFSWWIRQGEGRLRIRLMPEKKASEVGREGRLSAAIRASQPRLLFQIFGTGHSSLESPTNMPSPSPDYFTWNLTWIMKDSFPFLSHRSRYGLECSFDFPCELEYSPPLHDLRNQSWSWRRIPSEEASQMDLLDGPGAERSKEMPRGSFLLLNTSADSKHTILSPWMRSSSEHCTLAVSVHRHLQPSGRYIAQLLPHNEAAREILLMPTPGKHGWTVLQGRIGRPDNPFRVALEYISSGNRSLSAVDFFALKNCSEGTSPGSKMALQSSFTCWNGTVLQLGQACDFHQDCAQGEDESQMCRKLPVGFYCNFEDGFCGWTQGTLSPHTPQWQVRTLKDARFQDHQDHALLLSTTDVPASESATVTSATFPAPIKSSPCELRMSWLIRGVLRGNVSLVLVENKTGKEQGRMVWHVAAYEGLSLWQWMVLPLLDVSDRFWLQMVAWWGQGSRAIVAFDNISISLDCYLTISGEDKILQNTAPKSRNLFERNPNKELKPGENSPRQTPIFDPTVHWLFTTCGASGPHGPTQAQCNNAYQNSNLSVEVGSEGPLKGIQIWKVPATDTYSISGYGAAGGKGGKNTMMRSHGVSVLGIFNLEKDDMLYILVGQQGEDACPSTNQLIQKVCIGENNVIEEEIRVNRSVHEWAGGGGGGGGATYVFKMKDGVPVPLIIAAGGGGRAYGAKTDTFHPERLENNSSVLGLNGNSGAAGGGGGWNDNTSLLWAGKSLQEGATGGHSCPQAMKKWGWETRGGFGGGGGGCSSGGGGGGYIGGNAASNNDPEMDGEDGVSFISPLGILYTPALKVMEGHGEVNIKHYLNCSHCEVDECHMDPESHKVICFCDHGTVLAEDGVSCIVSPTPEPHLPLSLILSVVTSALVAALVLAFSGIMIVYRRKHQELQAMQMELQSPEYKLSKLRTSTIMTDYNPNYCFAGKTSSISDLKEVPRKNITLIRGLGHGAFGEVYEGQVSGMPNDPSPLQVAVKTLPEVCSEQDELDFLMEALIISKFNHQNIVRCIGVSLQSLPRFILLELMAGGDLKSFLRETRPRPSQPSSLAMLDLLHVARDIACGCQYLEENHFIHRDIAARNCLLTCPGPGRVAKIGDFGMARDIYRASYYRKGGCAMLPVKWMPPEAFMEGIFTSKTDTWSFGVLLWEIFSLGYMPYPSKSNQEVLEFVTSGGRMDPPKNCPGPVYRIMTQCWQHQPEDRPNFAIILERIEYCTQDPDVINTALPIEYGPLVEEEEKVPVRPKDPEGVPPLLVSQQAKREEERSPAAPPPLPTTSSGKAAKKPTAAEISVRVPRGPAVEGGHVNMAFSQSNPPSELHKVHGSRNKPTSLWNPTYGSWFTEKPTKKNNPIAKKEPHDRGNLGLEGSCTVPPNVATGRLPGASLLLEPSSLTANMKEVPLFRLRHFPCGNVNYGYQQQGLPLEAATAPGAGHYEDTILKSKNSMNQPGP

> <PDB ID(s) of Target Chain>
2XB7,2XBA,3AOX,5FTO,5FTQ,6E0R,6EBW,6EDL,6MX8,7JY4,7JYR,7JYS,7JYT,7LS0,7MZW,7MZY,7N00,7NX3,7NX4,8ARJ

> <UniProt (SwissProt) Recommended Name of Target Chain>
ALK tyrosine kinase receptor

> <UniProt (SwissProt) Entry Name of Target Chain>
ALK_HUMAN

> <UniProt (SwissProt) Primary ID of Target Chain>
Q9UM73

> <UniProt (SwissProt) Secondary ID(s) of Target Chain>
A6P4T4 A6P4V4 Q4ZFX9 Q53QQ6 Q53RZ4 Q59FI3 Q9Y4K6

> <UniProt (SwissProt) Alternative ID(s) of Target Chain>


> <UniProt (TrEMBL) Submitted Name of Target Chain>


> <UniProt (TrEMBL) Entry Name of Target Chain>


> <UniProt (TrEMBL) Primary ID of Target Chain>


> <UniProt (TrEMBL) Secondary ID(s) of Target Chain>


> <UniProt (TrEMBL) Alternative ID(s) of Target Chain>


$$$$

  SciTegic09261414532D

 29 32  0  0  0  0            999 V2000
    4.9153   -4.1332    0.0000 O   0  0
    4.1943   -4.5280    0.0000 C   0  0  1  0  0  0
    3.4888   -4.0991    0.0000 C   0  0
    3.5133   -3.2753    0.0000 C   0  0
    2.8087   -2.8465    0.0000 C   0  0
    2.0868   -3.2413    0.0000 C   0  0
    2.0698   -4.0695    0.0000 C   0  0
    2.7751   -4.4945    0.0000 C   0  0
    4.2397   -2.8827    0.0000 C   0  0
    1.3461   -4.4669    0.0000 F   0  0
    7.7890   -3.3721    0.0000 C   0  0
    5.6018   -4.5613    0.0000 C   0  0
    7.0500   -4.5968    0.0000 C   0  0
    5.6020   -5.3875    0.0000 C   0  0
    6.3478   -4.1673    0.0000 C   0  0
    7.0303   -5.4215    0.0000 C   0  0
    6.3085   -5.8169    0.0000 N   0  0
    4.8758   -5.7828    0.0000 N   0  0
    7.7736   -4.2013    0.0000 C   0  0
    8.5501   -4.4702    0.0000 C   0  0
    9.0507   -3.8141    0.0000 N   0  0
    8.5802   -3.1403    0.0000 N   0  0
    8.7884   -5.2575    0.0000 C   0  0
    3.7756   -5.2408    0.0000 C   0  0
    4.9558   -3.3235    0.0000 O   0  0
    4.2634   -2.0421    0.0000 N   0  0
    5.0031   -1.6423    0.0000 C   0  0
    3.5473   -1.6014    0.0000 C   0  0
    8.8592   -2.3470    0.0000 C   0  0
 12  1  1  0
  1  2  1  0
  2  3  1  0
  3  4  2  0
  4  5  1  0
  5  6  2  0
  6  7  1  0
  7  8  2  0
  8  3  1  0
  4  9  1  0
  7 10  1  0
 14 12  1  0
 12 15  2  0
 15 13  1  0
 13 16  2  0
 16 17  1  0
 14 17  2  0
 14 18  1  0
 13 19  1  0
 11 19  2  0
 19 20  1  0
 20 21  2  0
 21 22  1  0
 22 11  1  0
 20 23  1  0
  2 24  1  6
  9 25  2  0
  9 26  1  0
 26 27  1  0
 26 28  1  0
 27 11  1  0
 22 29  1  0
M  END
> <From>
www.bindingDB.org

> <BindingDB Reactant_set_id>
50103575

> <Ligand InChI>
InChI=1S/C21H22FN5O2/c1-11-19-13-7-18(20(23)24-9-13)29-12(2)16-8-14(22)5-6-15(16)21(28)26(3)10-17(19)27(4)25-11/h5-9,12H,10H2,1-4H3,(H2,23,24)/t12-/m1/s1

> <Ligand InChI Key>
ASQDMAQHZGURLM-GFCCVEGCSA-N

> <BindingDB MonomerID>
50018815

> <BindingDB Ligand Name>
CHEMBL3286820

> <Target Name>
ALK tyrosine kinase receptor

> <Target Source Organism According to Curator or DataSource>
Homo sapiens

> <Ki (nM)>


> <IC50 (nM)>
 14

> <Kd (nM)>


> <EC50 (nM)>


> <kon (M-1-s-1)>


> <koff (s-1)>


> <pH>


> <Temp C>


> <Curation/DataSource>
ChEMBL

> <Article DOI>
10.1021/jm500261q

> <BindingDB Entry DOI>
10.7270/Q2K35W68

> <PMID>
24819116

> <PubChem AID>


> <Patent Number>


> <Authors>
Johnson, TW; Richardson, PF; Bailey, S; Brooun, A; Burke, BJ; Collins, MR; Cui, JJ; Deal, JG; Deng, YL; Dinh, D; Engstrom, LD; He, M; Hoffman, J; Hoffman, RL; Huang, Q; Kania, RS; Kath, JC; Lam, H; Lam, JL; Le, PT; Lingardo, L; Liu, W; McTigue, M; Palmer, CL; Sach, NW; Smeal, T; Smith, GL; Stewart, AE; Timofeevski, S; Zhu, H; Zhu, J; Zou, HY; Edwards, MP

> <Date of publication>
6/12/2014

> <Date in BindingDB>
2/11/2015

> <Institution>
Pfizer Inc

> <Link to Ligand in BindingDB>
http://www.bindingdb.org/bind/chemsearch/marvin/MolStructure.jsp?monomerid=50018815

> <Link to Ligand-Target Pair in BindingDB>
http://www.bindingdb.org/jsp/dbsearch/PrimarySearch_ki.jsp?energyterm=kJ/mole&tag=pol&polymerid=5809&target=ALK+tyrosine+kinase+receptor&column=ki&startPg=0&Increment=50&submit=Search

> <Link to Ligand-Target Pair in BindingDB>
http://www.bindingdb.org/jsp/dbsearch/PrimarySearch_ki.jsp?energyterm=kJ/mole&tag=r21&monomerid=50018815&enzyme=ALK+tyrosine+kinase+receptor&column=ki&startPg=0&Increment=50&submit=Search

> <Ligand HET ID in PDB>
IV7

> <PDB ID(s) for Ligand-Target Complex>
4CMU

> <PubChem CID of Ligand>
90644193

> <PubChem SID of Ligand>
103929868

> <ChEBI ID of Ligand>


> <ChEMBL ID of Ligand>
CHEMBL3286820

> <DrugBank ID of Ligand>


> <IUPHAR_GRAC ID of Ligand>


> <KEGG ID of Ligand>


> <ZINC ID of Ligand>
ZINC33891509

> <Number of Protein Chains in Target (bigger than 1 implies a multichain complex)>
1

> <BindingDB Target Chain Sequence>
MGAIGLLWLLPLLLSTAAVGSGMGTGQRAGSPAAGPPLQPREPLSYSRLQRKSLAVDFVVPSLFRVYARDLLLPPSSSELKAGRPEARGSLALDCAPLLRLLGPAPGVSWTAGSPAPAEARTLSRVLKGGSVRKLRRAKQLVLELGEEAILEGCVGPPGEAAVGLLQFNLSELFSWWIRQGEGRLRIRLMPEKKASEVGREGRLSAAIRASQPRLLFQIFGTGHSSLESPTNMPSPSPDYFTWNLTWIMKDSFPFLSHRSRYGLECSFDFPCELEYSPPLHDLRNQSWSWRRIPSEEASQMDLLDGPGAERSKEMPRGSFLLLNTSADSKHTILSPWMRSSSEHCTLAVSVHRHLQPSGRYIAQLLPHNEAAREILLMPTPGKHGWTVLQGRIGRPDNPFRVALEYISSGNRSLSAVDFFALKNCSEGTSPGSKMALQSSFTCWNGTVLQLGQACDFHQDCAQGEDESQMCRKLPVGFYCNFEDGFCGWTQGTLSPHTPQWQVRTLKDARFQDHQDHALLLSTTDVPASESATVTSATFPAPIKSSPCELRMSWLIRGVLRGNVSLVLVENKTGKEQGRMVWHVAAYEGLSLWQWMVLPLLDVSDRFWLQMVAWWGQGSRAIVAFDNISISLDCYLTISGEDKILQNTAPKSRNLFERNPNKELKPGENSPRQTPIFDPTVHWLFTTCGASGPHGPTQAQCNNAYQNSNLSVEVGSEGPLKGIQIWKVPATDTYSISGYGAAGGKGGKNTMMRSHGVSVLGIFNLEKDDMLYILVGQQGEDACPSTNQLIQKVCIGENNVIEEEIRVNRSVHEWAGGGGGGGGATYVFKMKDGVPVPLIIAAGGGGRAYGAKTDTFHPERLENNSSVLGLNGNSGAAGGGGGWNDNTSLLWAGKSLQEGATGGHSCPQAMKKWGWETRGGFGGGGGGCSSGGGGGGYIGGNAASNNDPEMDGEDGVSFISPLGILYTPALKVMEGHGEVNIKHYLNCSHCEVDECHMDPESHKVICFCDHGTVLAEDGVSCIVSPTPEPHLPLSLILSVVTSALVAALVLAFSGIMIVYRRKHQELQAMQMELQSPEYKLSKLRTSTIMTDYNPNYCFAGKTSSISDLKEVPRKNITLIRGLGHGAFGEVYEGQVSGMPNDPSPLQVAVKTLPEVCSEQDELDFLMEALIISKFNHQNIVRCIGVSLQSLPRFILLELMAGGDLKSFLRETRPRPSQPSSLAMLDLLHVARDIACGCQYLEENHFIHRDIAARNCLLTCPGPGRVAKIGDFGMARDIYRASYYRKGGCAMLPVKWMPPEAFMEGIFTSKTDTWSFGVLLWEIFSLGYMPYPSKSNQEVLEFVTSGGRMDPPKNCPGPVYRIMTQCWQHQPEDRPNFAIILERIEYCTQDPDVINTALPIEYGPLVEEEEKVPVRPKDPEGVPPLLVSQQAKREEERSPAAPPPLPTTSSGKAAKKPTAAEISVRVPRGPAVEGGHVNMAFSQSNPPSELHKVHGSRNKPTSLWNPTYGSWFTEKPTKKNNPIAKKEPHDRGNLGLEGSCTVPPNVATGRLPGASLLLEPSSLTANMKEVPLFRLRHFPCGNVNYGYQQQGLPLEAATAPGAGHYEDTILKSKNSMNQPGP

> <PDB ID(s) of Target Chain>
2XB7,2XBA,3AOX,5FTO,5FTQ,6E0R,6EBW,6EDL,6MX8,7JY4,7JYR,7JYS,7JYT,7LS0,7MZW,7MZY,7N00,7NX3,7NX4,8ARJ

> <UniProt (SwissProt) Recommended Name of Target Chain>
ALK tyrosine kinase receptor

> <UniProt (SwissProt) Entry Name of Target Chain>
ALK_HUMAN

> <UniProt (SwissProt) Primary ID of Target Chain>
Q9UM73

> <UniProt (SwissProt) Secondary ID(s) of Target Chain>
A6P4T4 A6P4V4 Q4ZFX9 Q53QQ6 Q53RZ4 Q59FI3 Q9Y4K6

> <UniProt (SwissProt) Alternative ID(s) of Target Chain>


> <UniProt (TrEMBL) Submitted Name of Target Chain>


> <UniProt (TrEMBL) Entry Name of Target Chain>


> <UniProt (TrEMBL) Primary ID of Target Chain>


> <UniProt (TrEMBL) Secondary ID(s) of Target Chain>


> <UniProt (TrEMBL) Alternative ID(s) of Target Chain>


$$$$

  SciTegic09261414532D

 30 33  0  0  0  0            999 V2000
   15.5386   -5.1488    0.0000 O   0  0
   14.8183   -5.5433    0.0000 C   0  0  1  0  0  0
   14.1133   -5.1148    0.0000 C   0  0
   14.1378   -4.2915    0.0000 C   0  0
   13.4336   -3.8630    0.0000 C   0  0
   12.7123   -4.2576    0.0000 C   0  0
   12.6952   -5.0851    0.0000 C   0  0
   13.4001   -5.5098    0.0000 C   0  0
   14.8637   -3.8992    0.0000 C   0  0
   11.9721   -5.4822    0.0000 F   0  0
   18.4105   -4.3883    0.0000 C   0  0
   16.2248   -5.5766    0.0000 C   0  0
   17.6719   -5.6120    0.0000 C   0  0
   16.2249   -6.4022    0.0000 C   0  0
   16.9702   -5.1828    0.0000 C   0  0
   17.6523   -6.4363    0.0000 C   0  0
   16.9309   -6.8314    0.0000 N   0  0
   15.4994   -6.7973    0.0000 N   0  0
   18.3950   -5.2168    0.0000 C   0  0
   19.1710   -5.4856    0.0000 C   0  0
   19.6711   -4.8299    0.0000 N   0  0
   19.2011   -4.1567    0.0000 N   0  0
   14.3999   -6.2556    0.0000 C   0  0
   15.5793   -4.3397    0.0000 O   0  0
   14.8873   -3.0593    0.0000 N   0  0
   15.6266   -2.6597    0.0000 C   0  0
   14.1716   -2.6188    0.0000 C   0  0
   20.5114   -4.8476    0.0000 C   0  0
   19.4137   -6.2884    0.0000 C   0  0
   19.6562   -7.0930    0.0000 N   0  0
 12  1  1  0
  1  2  1  0
  2  3  1  0
  3  4  2  0
  4  5  1  0
  5  6  2  0
  6  7  1  0
  7  8  2  0
  8  3  1  0
  4  9  1  0
  7 10  1  0
 14 12  1  0
 12 15  2  0
 15 13  1  0
 13 16  2  0
 16 17  1  0
 14 17  2  0
 14 18  1  0
 13 19  1  0
 11 19  1  0
 19 20  2  0
 20 21  1  0
 21 22  1  0
 22 11  2  0
  2 23  1  6
  9 24  2  0
  9 25  1  0
 25 26  1  0
 25 27  1  0
 26 11  1  0
 21 28  1  0
 29 30  3  0
 20 29  1  0
M  END
> <From>
www.bindingDB.org

> <BindingDB Reactant_set_id>
50103638

> <Ligand InChI>
InChI=1S/C21H19FN6O2/c1-11-15-7-13(22)4-5-14(15)21(29)27(2)10-16-19(17(8-23)28(3)26-16)12-6-18(30-11)20(24)25-9-12/h4-7,9,11H,10H2,1-3H3,(H2,24,25)/t11-/m1/s1

> <Ligand InChI Key>
IIXWYSCJSQVBQM-LLVKDONJSA-N

> <BindingDB MonomerID>
50018830

> <BindingDB Ligand Name>
CHEMBL3286830::US10543199, Compound PF-06463922::US10780082, Compound PF-06463922::US11517561, Compound PF-06463922

> <Target Name>
Protein-tyrosine kinase 2-beta

> <Target Source Organism According to Curator or DataSource>
Human

> <Ki (nM)>


> <IC50 (nM)>
 14

> <Kd (nM)>


> <EC50 (nM)>


> <kon (M-1-s-1)>


> <koff (s-1)>


> <pH>


> <Temp C>


> <Curation/DataSource>
ChEMBL

> <Article DOI>
10.1021/jm500261q

> <BindingDB Entry DOI>
10.7270/Q2K35W68

> <PMID>
24819116

> <PubChem AID>


> <Patent Number>


> <Authors>
Johnson, TW; Richardson, PF; Bailey, S; Brooun, A; Burke, BJ; Collins, MR; Cui, JJ; Deal, JG; Deng, YL; Dinh, D; Engstrom, LD; He, M; Hoffman, J; Hoffman, RL; Huang, Q; Kania, RS; Kath, JC; Lam, H; Lam, JL; Le, PT; Lingardo, L; Liu, W; McTigue, M; Palmer, CL; Sach, NW; Smeal, T; Smith, GL; Stewart, AE; Timofeevski, S; Zhu, H; Zhu, J; Zou, HY; Edwards, MP

> <Date of publication>
6/12/2014

> <Date in BindingDB>
2/11/2015

> <Institution>
Pfizer Inc

> <Link to Ligand in BindingDB>
http://www.bindingdb.org/bind/chemsearch/marvin/MolStructure.jsp?monomerid=50018830

> <Link to Ligand-Target Pair in BindingDB>
http://www.bindingdb.org/jsp/dbsearch/PrimarySearch_ki.jsp?energyterm=kJ/mole&tag=pol&polymerid=10733&target=Protein-tyrosine+kinase+2-beta&column=ki&startPg=0&Increment=50&submit=Search

> <Link to Ligand-Target Pair in BindingDB>
http://www.bindingdb.org/jsp/dbsearch/PrimarySearch_ki.jsp?energyterm=kJ/mole&tag=r21&monomerid=50018830&enzyme=Protein-tyrosine+kinase+2-beta&column=ki&startPg=0&Increment=50&submit=Search

> <Ligand HET ID in PDB>
53P

> <PDB ID(s) for Ligand-Target Complex>


> <PubChem CID of Ligand>
71731823

> <PubChem SID of Ligand>
103929883

> <ChEBI ID of Ligand>


> <ChEMBL ID of Ligand>
CHEMBL3286830

> <DrugBank ID of Ligand>


> <IUPHAR_GRAC ID of Ligand>


> <KEGG ID of Ligand>


> <ZINC ID of Ligand>
ZINC33891516

> <Number of Protein Chains in Target (bigger than 1 implies a multichain complex)>
1

> <BindingDB Target Chain Sequence>
MSGVSEPLSRVKLGTLRRPEGPAEPMVVVPVDVEKEDVRILKVCFYSNSFNPGKNFKLVKCTVQTEIREIITSILLSGRIGPNIRLAECYGLRLKHMKSDEIHWLHPQMTVGEVQDKYECLHVEAEWRYDLQIRYLPEDFMESLKEDRTTLLYFYQQLRNDYMQRYASKVSEGMALQLGCLELRRFFKDMPHNALDKKSNFELLEKEVGLDLFFPKQMQENLKPKQFRKMIQQTFQQYASLREEECVMKFFNTLAGFANIDQETYRCELIQGWNITVDLVIGPKGIRQLTSQDAKPTCLAEFKQIRSIRCLPLEEGQAVLQLGIEGAPQALSIKTSSLAEAENMADLIDGYCRLQGEHQGSLIIHPRKDGEKRNSLPQIPMLNLEARRSHLSESCSIESDIYAEIPDETLRRPGGPQYGIAREDVVLNRILGEGFFGEVYEGVYTNHKGEKINVAVKTCKKDCTLDNKEKFMSEAVIMKNLDHPHIVKLIGIIEEEPTWIIMELYPYGELGHYLERNKNSLKVLTLVLYSLQICKAMAYLESINCVHRDIAVRNILVASPECVKLGDFGLSRYIEDEDYYKASVTRLPIKWMSPESINFRRFTTASDVWMFAVCMWEILSFGKQPFFWLENKDVIGVLEKGDRLPKPDLCPPVLYTLMTRCWDYDPSDRPRFTELVCSLSDVYQMEKDIAMEQERNARYRTPKILEPTAFQEPPPKPSRPKYRPPPQTNLLAPKLQFQVPEGLCASSPTLTSPMEYPSPVNSLHTPPLHRHNVFKRHSMREEDFIQPSSREEAQQLWEAEKVKMRQILDKQQKQMVEDYQWLRQEEKSLDPMVYMNDKSPLTPEKEVGYLEFTGPPQKPPRLGAQSIQPTANLDRTDDLVYLNVMELVRAVLELKNELCQLPPEGYVVVVKNVGLTLRKLIGSVDDLLPSLPSSSRTEIEGTQKLLNKDLAELINKMRLAQQNAVTSLSEECKRQMLTASHTLAVDAKNLLDAVDQAKVLANLAHPPAE

> <PDB ID(s) of Target Chain>
3CC6,3ET7,3FZO,3FZP,3FZR,3FZS,3FZT,3H3C,4EKU,5TO8,5TOB

> <UniProt (SwissProt) Recommended Name of Target Chain>
Protein-tyrosine kinase 2-beta

> <UniProt (SwissProt) Entry Name of Target Chain>
FAK2_HUMAN

> <UniProt (SwissProt) Primary ID of Target Chain>
Q14289

> <UniProt (SwissProt) Secondary ID(s) of Target Chain>
D3DST0 Q13475 Q14290 Q16709 Q6PID4

> <UniProt (SwissProt) Alternative ID(s) of Target Chain>


> <UniProt (TrEMBL) Submitted Name of Target Chain>


> <UniProt (TrEMBL) Entry Name of Target Chain>


> <UniProt (TrEMBL) Primary ID of Target Chain>


> <UniProt (TrEMBL) Secondary ID(s) of Target Chain>


> <UniProt (TrEMBL) Alternative ID(s) of Target Chain>


$$$$

  SciTegic05061409512D

 29 32  0  0  0  0            999 V2000
    8.5664  -15.1907    0.0000 C   0  0
    8.5664  -14.3657    0.0000 C   0  0
    9.2808  -13.9532    0.0000 C   0  0
    9.9953  -14.3657    0.0000 C   0  0
    9.9953  -15.1907    0.0000 C   0  0
    9.2808  -15.6032    0.0000 N   0  0
    7.8519  -15.6032    0.0000 N   0  0
    7.8519  -13.9532    0.0000 O   0  0
    7.1374  -14.3657    0.0000 C   0  0  2  0  0  0
    7.1374  -15.1907    0.0000 C   0  0
    6.4230  -13.9532    0.0000 C   0  0
    5.7085  -14.3657    0.0000 C   0  0
    4.9940  -13.9532    0.0000 C   0  0
    4.9940  -13.1282    0.0000 C   0  0
    5.7085  -12.7157    0.0000 C   0  0
    6.4230  -13.1282    0.0000 C   0  0
    5.0410  -15.6756    0.0000 N   0  0
    5.7085  -15.1907    0.0000 N   0  0
    6.3759  -15.6756    0.0000 N   0  0
    6.1210  -16.4602    0.0000 C   0  0
    5.2960  -16.4602    0.0000 C   0  0
    5.7085  -11.8907    0.0000 F   0  0
   11.6030  -12.9612    0.0000 N   0  0
   12.0155  -13.6756    0.0000 N   0  0
   11.4635  -14.2887    0.0000 C   0  0
   10.7098  -13.9532    0.0000 C   0  0
   10.7960  -13.1327    0.0000 C   0  0
   11.6350  -15.0957    0.0000 C   0  0
   11.9385  -12.2075    0.0000 C   0  0
  1  2  1  0
  2  3  2  0
  3  4  1  0
  4  5  2  0
  5  6  1  0
  1  6  2  0
  1  7  1  0
  9 10  1  6
  8  9  1  0
 11 12  1  0
 12 13  2  0
 13 14  1  0
 14 15  2  0
 15 16  1  0
 11 16  2  0
 17 18  1  0
 18 19  1  0
 19 20  2  0
 20 21  1  0
 17 21  2  0
 12 18  1  0
 15 22  1  0
  9 11  1  0
  2  8  1  0
 23 24  1  0
 24 25  2  0
 25 26  1  0
 26 27  2  0
 23 27  1  0
 25 28  1  0
 23 29  1  0
  4 26  1  0
M  END
> <From>
www.bindingDB.org

> <BindingDB Reactant_set_id>
50103682

> <Ligand InChI>
InChI=1S/C20H20FN7O/c1-12-17(11-27(3)26-12)14-8-19(20(22)23-10-14)29-13(2)16-9-15(21)4-5-18(16)28-24-6-7-25-28/h4-11,13H,1-3H3,(H2,22,23)/t13-/m1/s1

> <Ligand InChI Key>
RZEJOJRZSRSZQC-CYBMUJFWSA-N

> <BindingDB MonomerID>
50018818

> <BindingDB Ligand Name>
CHEMBL3128075

> <Target Name>
ALK tyrosine kinase receptor

> <Target Source Organism According to Curator or DataSource>
Homo sapiens

> <Ki (nM)>


> <IC50 (nM)>
 14

> <Kd (nM)>


> <EC50 (nM)>


> <kon (M-1-s-1)>


> <koff (s-1)>


> <pH>


> <Temp C>


> <Curation/DataSource>
ChEMBL

> <Article DOI>
10.1021/jm500261q

> <BindingDB Entry DOI>
10.7270/Q2K35W68

> <PMID>
24819116

> <PubChem AID>


> <Patent Number>


> <Authors>
Johnson, TW; Richardson, PF; Bailey, S; Brooun, A; Burke, BJ; Collins, MR; Cui, JJ; Deal, JG; Deng, YL; Dinh, D; Engstrom, LD; He, M; Hoffman, J; Hoffman, RL; Huang, Q; Kania, RS; Kath, JC; Lam, H; Lam, JL; Le, PT; Lingardo, L; Liu, W; McTigue, M; Palmer, CL; Sach, NW; Smeal, T; Smith, GL; Stewart, AE; Timofeevski, S; Zhu, H; Zhu, J; Zou, HY; Edwards, MP

> <Date of publication>
6/12/2014

> <Date in BindingDB>
2/11/2015

> <Institution>
Pfizer Inc

> <Link to Ligand in BindingDB>
http://www.bindingdb.org/bind/chemsearch/marvin/MolStructure.jsp?monomerid=50018818

> <Link to Ligand-Target Pair in BindingDB>
http://www.bindingdb.org/jsp/dbsearch/PrimarySearch_ki.jsp?energyterm=kJ/mole&tag=pol&polymerid=5809&target=ALK+tyrosine+kinase+receptor&column=ki&startPg=0&Increment=50&submit=Search

> <Link to Ligand-Target Pair in BindingDB>
http://www.bindingdb.org/jsp/dbsearch/PrimarySearch_ki.jsp?energyterm=kJ/mole&tag=r21&monomerid=50018818&enzyme=ALK+tyrosine+kinase+receptor&column=ki&startPg=0&Increment=50&submit=Search

> <Ligand HET ID in PDB>


> <PDB ID(s) for Ligand-Target Complex>


> <PubChem CID of Ligand>
76311144

> <PubChem SID of Ligand>
103929871

> <ChEBI ID of Ligand>


> <ChEMBL ID of Ligand>
CHEMBL3128075

> <DrugBank ID of Ligand>


> <IUPHAR_GRAC ID of Ligand>


> <KEGG ID of Ligand>


> <ZINC ID of Ligand>
ZINC33891495

> <Number of Protein Chains in Target (bigger than 1 implies a multichain complex)>
1

> <BindingDB Target Chain Sequence>
MGAIGLLWLLPLLLSTAAVGSGMGTGQRAGSPAAGPPLQPREPLSYSRLQRKSLAVDFVVPSLFRVYARDLLLPPSSSELKAGRPEARGSLALDCAPLLRLLGPAPGVSWTAGSPAPAEARTLSRVLKGGSVRKLRRAKQLVLELGEEAILEGCVGPPGEAAVGLLQFNLSELFSWWIRQGEGRLRIRLMPEKKASEVGREGRLSAAIRASQPRLLFQIFGTGHSSLESPTNMPSPSPDYFTWNLTWIMKDSFPFLSHRSRYGLECSFDFPCELEYSPPLHDLRNQSWSWRRIPSEEASQMDLLDGPGAERSKEMPRGSFLLLNTSADSKHTILSPWMRSSSEHCTLAVSVHRHLQPSGRYIAQLLPHNEAAREILLMPTPGKHGWTVLQGRIGRPDNPFRVALEYISSGNRSLSAVDFFALKNCSEGTSPGSKMALQSSFTCWNGTVLQLGQACDFHQDCAQGEDESQMCRKLPVGFYCNFEDGFCGWTQGTLSPHTPQWQVRTLKDARFQDHQDHALLLSTTDVPASESATVTSATFPAPIKSSPCELRMSWLIRGVLRGNVSLVLVENKTGKEQGRMVWHVAAYEGLSLWQWMVLPLLDVSDRFWLQMVAWWGQGSRAIVAFDNISISLDCYLTISGEDKILQNTAPKSRNLFERNPNKELKPGENSPRQTPIFDPTVHWLFTTCGASGPHGPTQAQCNNAYQNSNLSVEVGSEGPLKGIQIWKVPATDTYSISGYGAAGGKGGKNTMMRSHGVSVLGIFNLEKDDMLYILVGQQGEDACPSTNQLIQKVCIGENNVIEEEIRVNRSVHEWAGGGGGGGGATYVFKMKDGVPVPLIIAAGGGGRAYGAKTDTFHPERLENNSSVLGLNGNSGAAGGGGGWNDNTSLLWAGKSLQEGATGGHSCPQAMKKWGWETRGGFGGGGGGCSSGGGGGGYIGGNAASNNDPEMDGEDGVSFISPLGILYTPALKVMEGHGEVNIKHYLNCSHCEVDECHMDPESHKVICFCDHGTVLAEDGVSCIVSPTPEPHLPLSLILSVVTSALVAALVLAFSGIMIVYRRKHQELQAMQMELQSPEYKLSKLRTSTIMTDYNPNYCFAGKTSSISDLKEVPRKNITLIRGLGHGAFGEVYEGQVSGMPNDPSPLQVAVKTLPEVCSEQDELDFLMEALIISKFNHQNIVRCIGVSLQSLPRFILLELMAGGDLKSFLRETRPRPSQPSSLAMLDLLHVARDIACGCQYLEENHFIHRDIAARNCLLTCPGPGRVAKIGDFGMARDIYRASYYRKGGCAMLPVKWMPPEAFMEGIFTSKTDTWSFGVLLWEIFSLGYMPYPSKSNQEVLEFVTSGGRMDPPKNCPGPVYRIMTQCWQHQPEDRPNFAIILERIEYCTQDPDVINTALPIEYGPLVEEEEKVPVRPKDPEGVPPLLVSQQAKREEERSPAAPPPLPTTSSGKAAKKPTAAEISVRVPRGPAVEGGHVNMAFSQSNPPSELHKVHGSRNKPTSLWNPTYGSWFTEKPTKKNNPIAKKEPHDRGNLGLEGSCTVPPNVATGRLPGASLLLEPSSLTANMKEVPLFRLRHFPCGNVNYGYQQQGLPLEAATAPGAGHYEDTILKSKNSMNQPGP

> <PDB ID(s) of Target Chain>
2XB7,2XBA,3AOX,5FTO,5FTQ,6E0R,6EBW,6EDL,6MX8,7JY4,7JYR,7JYS,7JYT,7LS0,7MZW,7MZY,7N00,7NX3,7NX4,8ARJ

> <UniProt (SwissProt) Recommended Name of Target Chain>
ALK tyrosine kinase receptor

> <UniProt (SwissProt) Entry Name of Target Chain>
ALK_HUMAN

> <UniProt (SwissProt) Primary ID of Target Chain>
Q9UM73

> <UniProt (SwissProt) Secondary ID(s) of Target Chain>
A6P4T4 A6P4V4 Q4ZFX9 Q53QQ6 Q53RZ4 Q59FI3 Q9Y4K6

> <UniProt (SwissProt) Alternative ID(s) of Target Chain>


> <UniProt (TrEMBL) Submitted Name of Target Chain>


> <UniProt (TrEMBL) Entry Name of Target Chain>


> <UniProt (TrEMBL) Primary ID of Target Chain>


> <UniProt (TrEMBL) Secondary ID(s) of Target Chain>


> <UniProt (TrEMBL) Alternative ID(s) of Target Chain>


$$$$

  SciTegic09261414532D

 30 33  0  0  0  0            999 V2000
   15.5386   -5.1488    0.0000 O   0  0
   14.8183   -5.5433    0.0000 C   0  0  1  0  0  0
   14.1133   -5.1148    0.0000 C   0  0
   14.1378   -4.2915    0.0000 C   0  0
   13.4336   -3.8630    0.0000 C   0  0
   12.7123   -4.2576    0.0000 C   0  0
   12.6952   -5.0851    0.0000 C   0  0
   13.4001   -5.5098    0.0000 C   0  0
   14.8637   -3.8992    0.0000 C   0  0
   11.9721   -5.4822    0.0000 F   0  0
   18.4105   -4.3883    0.0000 C   0  0
   16.2248   -5.5766    0.0000 C   0  0
   17.6719   -5.6120    0.0000 C   0  0
   16.2249   -6.4022    0.0000 C   0  0
   16.9702   -5.1828    0.0000 C   0  0
   17.6523   -6.4363    0.0000 C   0  0
   16.9309   -6.8314    0.0000 N   0  0
   15.4994   -6.7973    0.0000 N   0  0
   18.3950   -5.2168    0.0000 C   0  0
   19.1710   -5.4856    0.0000 C   0  0
   19.6711   -4.8299    0.0000 N   0  0
   19.2011   -4.1567    0.0000 N   0  0
   14.3999   -6.2556    0.0000 C   0  0
   15.5793   -4.3397    0.0000 O   0  0
   14.8873   -3.0593    0.0000 N   0  0
   15.6266   -2.6597    0.0000 C   0  0
   14.1716   -2.6188    0.0000 C   0  0
   20.5114   -4.8476    0.0000 C   0  0
   19.4137   -6.2884    0.0000 C   0  0
   19.6562   -7.0930    0.0000 N   0  0
 12  1  1  0
  1  2  1  0
  2  3  1  0
  3  4  2  0
  4  5  1  0
  5  6  2  0
  6  7  1  0
  7  8  2  0
  8  3  1  0
  4  9  1  0
  7 10  1  0
 14 12  1  0
 12 15  2  0
 15 13  1  0
 13 16  2  0
 16 17  1  0
 14 17  2  0
 14 18  1  0
 13 19  1  0
 11 19  1  0
 19 20  2  0
 20 21  1  0
 21 22  1  0
 22 11  2  0
  2 23  1  6
  9 24  2  0
  9 25  1  0
 25 26  1  0
 25 27  1  0
 26 11  1  0
 21 28  1  0
 29 30  3  0
 20 29  1  0
M  END
> <From>
www.bindingDB.org

> <BindingDB Reactant_set_id>
50103618

> <Ligand InChI>
InChI=1S/C21H19FN6O2/c1-11-15-7-13(22)4-5-14(15)21(29)27(2)10-16-19(17(8-23)28(3)26-16)12-6-18(30-11)20(24)25-9-12/h4-7,9,11H,10H2,1-3H3,(H2,24,25)/t11-/m1/s1

> <Ligand InChI Key>
IIXWYSCJSQVBQM-LLVKDONJSA-N

> <BindingDB MonomerID>
50018830

> <BindingDB Ligand Name>
CHEMBL3286830::US10543199, Compound PF-06463922::US10780082, Compound PF-06463922::US11517561, Compound PF-06463922

> <Target Name>
ALK tyrosine kinase receptor

> <Target Source Organism According to Curator or DataSource>
Homo sapiens

> <Ki (nM)>


> <IC50 (nM)>
 15

> <Kd (nM)>


> <EC50 (nM)>


> <kon (M-1-s-1)>


> <koff (s-1)>


> <pH>


> <Temp C>


> <Curation/DataSource>
ChEMBL

> <Article DOI>
10.1021/jm500261q

> <BindingDB Entry DOI>
10.7270/Q2K35W68

> <PMID>
24819116

> <PubChem AID>


> <Patent Number>


> <Authors>
Johnson, TW; Richardson, PF; Bailey, S; Brooun, A; Burke, BJ; Collins, MR; Cui, JJ; Deal, JG; Deng, YL; Dinh, D; Engstrom, LD; He, M; Hoffman, J; Hoffman, RL; Huang, Q; Kania, RS; Kath, JC; Lam, H; Lam, JL; Le, PT; Lingardo, L; Liu, W; McTigue, M; Palmer, CL; Sach, NW; Smeal, T; Smith, GL; Stewart, AE; Timofeevski, S; Zhu, H; Zhu, J; Zou, HY; Edwards, MP

> <Date of publication>
6/12/2014

> <Date in BindingDB>
2/11/2015

> <Institution>
Pfizer Inc

> <Link to Ligand in BindingDB>
http://www.bindingdb.org/bind/chemsearch/marvin/MolStructure.jsp?monomerid=50018830

> <Link to Ligand-Target Pair in BindingDB>
http://www.bindingdb.org/jsp/dbsearch/PrimarySearch_ki.jsp?energyterm=kJ/mole&tag=pol&polymerid=5809&target=ALK+tyrosine+kinase+receptor&column=ki&startPg=0&Increment=50&submit=Search

> <Link to Ligand-Target Pair in BindingDB>
http://www.bindingdb.org/jsp/dbsearch/PrimarySearch_ki.jsp?energyterm=kJ/mole&tag=r21&monomerid=50018830&enzyme=ALK+tyrosine+kinase+receptor&column=ki&startPg=0&Increment=50&submit=Search

> <Ligand HET ID in PDB>
53P

> <PDB ID(s) for Ligand-Target Complex>


> <PubChem CID of Ligand>
71731823

> <PubChem SID of Ligand>
103929883

> <ChEBI ID of Ligand>


> <ChEMBL ID of Ligand>
CHEMBL3286830

> <DrugBank ID of Ligand>


> <IUPHAR_GRAC ID of Ligand>


> <KEGG ID of Ligand>


> <ZINC ID of Ligand>
ZINC33891516

> <Number of Protein Chains in Target (bigger than 1 implies a multichain complex)>
1

> <BindingDB Target Chain Sequence>
MGAIGLLWLLPLLLSTAAVGSGMGTGQRAGSPAAGPPLQPREPLSYSRLQRKSLAVDFVVPSLFRVYARDLLLPPSSSELKAGRPEARGSLALDCAPLLRLLGPAPGVSWTAGSPAPAEARTLSRVLKGGSVRKLRRAKQLVLELGEEAILEGCVGPPGEAAVGLLQFNLSELFSWWIRQGEGRLRIRLMPEKKASEVGREGRLSAAIRASQPRLLFQIFGTGHSSLESPTNMPSPSPDYFTWNLTWIMKDSFPFLSHRSRYGLECSFDFPCELEYSPPLHDLRNQSWSWRRIPSEEASQMDLLDGPGAERSKEMPRGSFLLLNTSADSKHTILSPWMRSSSEHCTLAVSVHRHLQPSGRYIAQLLPHNEAAREILLMPTPGKHGWTVLQGRIGRPDNPFRVALEYISSGNRSLSAVDFFALKNCSEGTSPGSKMALQSSFTCWNGTVLQLGQACDFHQDCAQGEDESQMCRKLPVGFYCNFEDGFCGWTQGTLSPHTPQWQVRTLKDARFQDHQDHALLLSTTDVPASESATVTSATFPAPIKSSPCELRMSWLIRGVLRGNVSLVLVENKTGKEQGRMVWHVAAYEGLSLWQWMVLPLLDVSDRFWLQMVAWWGQGSRAIVAFDNISISLDCYLTISGEDKILQNTAPKSRNLFERNPNKELKPGENSPRQTPIFDPTVHWLFTTCGASGPHGPTQAQCNNAYQNSNLSVEVGSEGPLKGIQIWKVPATDTYSISGYGAAGGKGGKNTMMRSHGVSVLGIFNLEKDDMLYILVGQQGEDACPSTNQLIQKVCIGENNVIEEEIRVNRSVHEWAGGGGGGGGATYVFKMKDGVPVPLIIAAGGGGRAYGAKTDTFHPERLENNSSVLGLNGNSGAAGGGGGWNDNTSLLWAGKSLQEGATGGHSCPQAMKKWGWETRGGFGGGGGGCSSGGGGGGYIGGNAASNNDPEMDGEDGVSFISPLGILYTPALKVMEGHGEVNIKHYLNCSHCEVDECHMDPESHKVICFCDHGTVLAEDGVSCIVSPTPEPHLPLSLILSVVTSALVAALVLAFSGIMIVYRRKHQELQAMQMELQSPEYKLSKLRTSTIMTDYNPNYCFAGKTSSISDLKEVPRKNITLIRGLGHGAFGEVYEGQVSGMPNDPSPLQVAVKTLPEVCSEQDELDFLMEALIISKFNHQNIVRCIGVSLQSLPRFILLELMAGGDLKSFLRETRPRPSQPSSLAMLDLLHVARDIACGCQYLEENHFIHRDIAARNCLLTCPGPGRVAKIGDFGMARDIYRASYYRKGGCAMLPVKWMPPEAFMEGIFTSKTDTWSFGVLLWEIFSLGYMPYPSKSNQEVLEFVTSGGRMDPPKNCPGPVYRIMTQCWQHQPEDRPNFAIILERIEYCTQDPDVINTALPIEYGPLVEEEEKVPVRPKDPEGVPPLLVSQQAKREEERSPAAPPPLPTTSSGKAAKKPTAAEISVRVPRGPAVEGGHVNMAFSQSNPPSELHKVHGSRNKPTSLWNPTYGSWFTEKPTKKNNPIAKKEPHDRGNLGLEGSCTVPPNVATGRLPGASLLLEPSSLTANMKEVPLFRLRHFPCGNVNYGYQQQGLPLEAATAPGAGHYEDTILKSKNSMNQPGP

> <PDB ID(s) of Target Chain>
2XB7,2XBA,3AOX,5FTO,5FTQ,6E0R,6EBW,6EDL,6MX8,7JY4,7JYR,7JYS,7JYT,7LS0,7MZW,7MZY,7N00,7NX3,7NX4,8ARJ

> <UniProt (SwissProt) Recommended Name of Target Chain>
ALK tyrosine kinase receptor

> <UniProt (SwissProt) Entry Name of Target Chain>
ALK_HUMAN

> <UniProt (SwissProt) Primary ID of Target Chain>
Q9UM73

> <UniProt (SwissProt) Secondary ID(s) of Target Chain>
A6P4T4 A6P4V4 Q4ZFX9 Q53QQ6 Q53RZ4 Q59FI3 Q9Y4K6

> <UniProt (SwissProt) Alternative ID(s) of Target Chain>


> <UniProt (TrEMBL) Submitted Name of Target Chain>


> <UniProt (TrEMBL) Entry Name of Target Chain>


> <UniProt (TrEMBL) Primary ID of Target Chain>


> <UniProt (TrEMBL) Secondary ID(s) of Target Chain>


> <UniProt (TrEMBL) Alternative ID(s) of Target Chain>


$$$$

  SciTegic09261414532D

 27 30  0  0  0  0            999 V2000
   11.4214   -4.2807    0.0000 O   0  0
   10.7043   -4.6727    0.0000 C   0  0
   10.0064   -4.2477    0.0000 C   0  0
   10.0302   -3.4305    0.0000 C   0  0
    9.3330   -3.0056    0.0000 C   0  0
    8.6150   -3.3976    0.0000 C   0  0
    8.5984   -4.2188    0.0000 C   0  0
    9.2962   -4.6401    0.0000 C   0  0
   10.7484   -3.0408    0.0000 O   0  0
   11.4451   -3.4680    0.0000 C   0  0
   12.1634   -3.0782    0.0000 C   0  0
   12.8600   -3.5054    0.0000 C   0  0
    7.8827   -4.6133    0.0000 F   0  0
   14.2678   -3.5288    0.0000 C   0  0
   12.1010   -4.7050    0.0000 C   0  0
   13.5372   -4.7395    0.0000 C   0  0
   12.1012   -5.5244    0.0000 C   0  0
   12.8383   -4.3139    0.0000 C   0  0
   13.5181   -5.5575    0.0000 C   0  0
   12.8001   -5.9500    0.0000 N   0  0
   11.3832   -5.9169    0.0000 N   0  0
   14.2528   -4.3469    0.0000 C   0  0
   15.0239   -4.6165    0.0000 C   0  0
   15.5186   -3.9665    0.0000 N   0  0
   15.0532   -3.2952    0.0000 N   0  0
   15.2596   -5.3982    0.0000 C   0  0
   15.4948   -6.1808    0.0000 N   0  0
 15  1  1  0
  1  2  1  0
  2  3  1  0
  3  4  2  0
  4  5  1  0
  5  6  2  0
  6  7  1  0
  7  8  2  0
  8  3  1  0
  4  9  1  0
  9 10  1  0
 10 11  1  0
 11 12  1  0
 12 14  1  0
  7 13  1  0
 17 15  1  0
 15 18  2  0
 18 16  1  0
 16 19  2  0
 19 20  1  0
 17 20  2  0
 17 21  1  0
 16 22  1  0
 14 22  1  0
 22 23  2  0
 23 24  1  0
 24 25  1  0
 25 14  2  0
 26 27  3  0
 23 26  1  0
M  END
> <From>
www.bindingDB.org

> <BindingDB Reactant_set_id>
50103688

> <Ligand InChI>
InChI=1S/C19H16FN5O2/c20-13-3-4-16-12(6-13)10-27-17-7-11(9-23-19(17)22)18-14(2-1-5-26-16)24-25-15(18)8-21/h3-4,6-7,9H,1-2,5,10H2,(H2,22,23)(H,24,25)

> <Ligand InChI Key>
IXNVIDNGIIKHPP-UHFFFAOYSA-N

> <BindingDB MonomerID>
50018825

> <BindingDB Ligand Name>
CHEMBL3286815

> <Target Name>
ALK tyrosine kinase receptor

> <Target Source Organism According to Curator or DataSource>
Homo sapiens

> <Ki (nM)>


> <IC50 (nM)>
 15

> <Kd (nM)>


> <EC50 (nM)>


> <kon (M-1-s-1)>


> <koff (s-1)>


> <pH>


> <Temp C>


> <Curation/DataSource>
ChEMBL

> <Article DOI>
10.1021/jm500261q

> <BindingDB Entry DOI>
10.7270/Q2K35W68

> <PMID>
24819116

> <PubChem AID>


> <Patent Number>


> <Authors>
Johnson, TW; Richardson, PF; Bailey, S; Brooun, A; Burke, BJ; Collins, MR; Cui, JJ; Deal, JG; Deng, YL; Dinh, D; Engstrom, LD; He, M; Hoffman, J; Hoffman, RL; Huang, Q; Kania, RS; Kath, JC; Lam, H; Lam, JL; Le, PT; Lingardo, L; Liu, W; McTigue, M; Palmer, CL; Sach, NW; Smeal, T; Smith, GL; Stewart, AE; Timofeevski, S; Zhu, H; Zhu, J; Zou, HY; Edwards, MP

> <Date of publication>
6/12/2014

> <Date in BindingDB>
2/11/2015

> <Institution>
Pfizer Inc

> <Link to Ligand in BindingDB>
http://www.bindingdb.org/bind/chemsearch/marvin/MolStructure.jsp?monomerid=50018825

> <Link to Ligand-Target Pair in BindingDB>
http://www.bindingdb.org/jsp/dbsearch/PrimarySearch_ki.jsp?energyterm=kJ/mole&tag=pol&polymerid=5809&target=ALK+tyrosine+kinase+receptor&column=ki&startPg=0&Increment=50&submit=Search

> <Link to Ligand-Target Pair in BindingDB>
http://www.bindingdb.org/jsp/dbsearch/PrimarySearch_ki.jsp?energyterm=kJ/mole&tag=r21&monomerid=50018825&enzyme=ALK+tyrosine+kinase+receptor&column=ki&startPg=0&Increment=50&submit=Search

> <Ligand HET ID in PDB>


> <PDB ID(s) for Ligand-Target Complex>


> <PubChem CID of Ligand>
71732094

> <PubChem SID of Ligand>
103929878

> <ChEBI ID of Ligand>


> <ChEMBL ID of Ligand>
CHEMBL3286815

> <DrugBank ID of Ligand>


> <IUPHAR_GRAC ID of Ligand>


> <KEGG ID of Ligand>


> <ZINC ID of Ligand>
ZINC33891532

> <Number of Protein Chains in Target (bigger than 1 implies a multichain complex)>
1

> <BindingDB Target Chain Sequence>
MGAIGLLWLLPLLLSTAAVGSGMGTGQRAGSPAAGPPLQPREPLSYSRLQRKSLAVDFVVPSLFRVYARDLLLPPSSSELKAGRPEARGSLALDCAPLLRLLGPAPGVSWTAGSPAPAEARTLSRVLKGGSVRKLRRAKQLVLELGEEAILEGCVGPPGEAAVGLLQFNLSELFSWWIRQGEGRLRIRLMPEKKASEVGREGRLSAAIRASQPRLLFQIFGTGHSSLESPTNMPSPSPDYFTWNLTWIMKDSFPFLSHRSRYGLECSFDFPCELEYSPPLHDLRNQSWSWRRIPSEEASQMDLLDGPGAERSKEMPRGSFLLLNTSADSKHTILSPWMRSSSEHCTLAVSVHRHLQPSGRYIAQLLPHNEAAREILLMPTPGKHGWTVLQGRIGRPDNPFRVALEYISSGNRSLSAVDFFALKNCSEGTSPGSKMALQSSFTCWNGTVLQLGQACDFHQDCAQGEDESQMCRKLPVGFYCNFEDGFCGWTQGTLSPHTPQWQVRTLKDARFQDHQDHALLLSTTDVPASESATVTSATFPAPIKSSPCELRMSWLIRGVLRGNVSLVLVENKTGKEQGRMVWHVAAYEGLSLWQWMVLPLLDVSDRFWLQMVAWWGQGSRAIVAFDNISISLDCYLTISGEDKILQNTAPKSRNLFERNPNKELKPGENSPRQTPIFDPTVHWLFTTCGASGPHGPTQAQCNNAYQNSNLSVEVGSEGPLKGIQIWKVPATDTYSISGYGAAGGKGGKNTMMRSHGVSVLGIFNLEKDDMLYILVGQQGEDACPSTNQLIQKVCIGENNVIEEEIRVNRSVHEWAGGGGGGGGATYVFKMKDGVPVPLIIAAGGGGRAYGAKTDTFHPERLENNSSVLGLNGNSGAAGGGGGWNDNTSLLWAGKSLQEGATGGHSCPQAMKKWGWETRGGFGGGGGGCSSGGGGGGYIGGNAASNNDPEMDGEDGVSFISPLGILYTPALKVMEGHGEVNIKHYLNCSHCEVDECHMDPESHKVICFCDHGTVLAEDGVSCIVSPTPEPHLPLSLILSVVTSALVAALVLAFSGIMIVYRRKHQELQAMQMELQSPEYKLSKLRTSTIMTDYNPNYCFAGKTSSISDLKEVPRKNITLIRGLGHGAFGEVYEGQVSGMPNDPSPLQVAVKTLPEVCSEQDELDFLMEALIISKFNHQNIVRCIGVSLQSLPRFILLELMAGGDLKSFLRETRPRPSQPSSLAMLDLLHVARDIACGCQYLEENHFIHRDIAARNCLLTCPGPGRVAKIGDFGMARDIYRASYYRKGGCAMLPVKWMPPEAFMEGIFTSKTDTWSFGVLLWEIFSLGYMPYPSKSNQEVLEFVTSGGRMDPPKNCPGPVYRIMTQCWQHQPEDRPNFAIILERIEYCTQDPDVINTALPIEYGPLVEEEEKVPVRPKDPEGVPPLLVSQQAKREEERSPAAPPPLPTTSSGKAAKKPTAAEISVRVPRGPAVEGGHVNMAFSQSNPPSELHKVHGSRNKPTSLWNPTYGSWFTEKPTKKNNPIAKKEPHDRGNLGLEGSCTVPPNVATGRLPGASLLLEPSSLTANMKEVPLFRLRHFPCGNVNYGYQQQGLPLEAATAPGAGHYEDTILKSKNSMNQPGP

> <PDB ID(s) of Target Chain>
2XB7,2XBA,3AOX,5FTO,5FTQ,6E0R,6EBW,6EDL,6MX8,7JY4,7JYR,7JYS,7JYT,7LS0,7MZW,7MZY,7N00,7NX3,7NX4,8ARJ

> <UniProt (SwissProt) Recommended Name of Target Chain>
ALK tyrosine kinase receptor

> <UniProt (SwissProt) Entry Name of Target Chain>
ALK_HUMAN

> <UniProt (SwissProt) Primary ID of Target Chain>
Q9UM73

> <UniProt (SwissProt) Secondary ID(s) of Target Chain>
A6P4T4 A6P4V4 Q4ZFX9 Q53QQ6 Q53RZ4 Q59FI3 Q9Y4K6

> <UniProt (SwissProt) Alternative ID(s) of Target Chain>


> <UniProt (TrEMBL) Submitted Name of Target Chain>


> <UniProt (TrEMBL) Entry Name of Target Chain>


> <UniProt (TrEMBL) Primary ID of Target Chain>


> <UniProt (TrEMBL) Secondary ID(s) of Target Chain>


> <UniProt (TrEMBL) Alternative ID(s) of Target Chain>


$$$$

  SciTegic09261414532D

 29 31  0  0  0  0            999 V2000
   29.5631  -11.0840    0.0000 C   0  0
   28.8410  -11.4751    0.0000 C   0  0
   27.4049  -12.2600    0.0000 C   0  0
   27.4241  -11.4420    0.0000 C   0  0
   28.1421  -11.0495    0.0000 N   0  0
   28.8219  -12.2932    0.0000 C   0  0
   28.1039  -12.6856    0.0000 N   0  0
   26.6869  -12.6525    0.0000 N   0  0
   26.7252  -11.0164    0.0000 O   0  0
   26.7445  -10.1981    0.0000 C   0  0  2  0  0  0
   27.4819   -9.8439    0.0000 C   0  0
   26.0418   -9.7788    0.0000 C   0  0
   25.3273  -10.1777    0.0000 C   0  0
   24.6246   -9.7584    0.0000 C   0  0
   24.6364   -8.9402    0.0000 C   0  0
   25.3508   -8.5413    0.0000 C   0  0
   26.0535   -8.9606    0.0000 C   0  0
   23.9101  -10.1573    0.0000 F   0  0
   30.2604  -11.5153    0.0000 C   0  0
   30.9820  -11.1249    0.0000 N   0  0
   31.0048  -10.3031    0.0000 C   0  0
   30.3001   -9.8733    0.0000 C   0  0
   29.5813  -10.2662    0.0000 C   0  0
   30.2367  -12.3321    0.0000 O   0  0
   29.5175  -12.7200    0.0000 C   0  0
   26.7670   -8.5622    0.0000 C   0  0
   27.4688   -8.9809    0.0000 O   0  0
   26.7788   -7.7451    0.0000 N   0  0
   27.4923   -7.3467    0.0000 C   0  0
  2  1  1  0
  3  4  1  0
  4  5  2  0
  5  2  1  0
  2  6  2  0
  6  7  1  0
  3  7  2  0
  3  8  1  0
 10 11  1  1
  9 10  1  0
 12 13  1  0
 13 14  2  0
 14 15  1  0
 15 16  2  0
 16 17  1  0
 12 17  2  0
 14 18  1  0
 10 12  1  0
  4  9  1  0
  1 19  2  0
 19 20  1  0
 20 21  2  0
 21 22  1  0
 22 23  2  0
 23  1  1  0
 19 24  1  0
 24 25  1  0
 17 26  1  0
 26 27  2  0
 26 28  1  0
 28 29  1  0
M  END
> <From>
www.bindingDB.org

> <BindingDB Reactant_set_id>
50103685

> <Ligand InChI>
InChI=1S/C20H20FN5O3/c1-11(15-9-12(21)6-7-13(15)18(27)23-2)29-20-17(22)25-10-16(26-20)14-5-4-8-24-19(14)28-3/h4-11H,1-3H3,(H2,22,25)(H,23,27)/t11-/m1/s1

> <Ligand InChI Key>
AMLQLZSHSQNJKQ-LLVKDONJSA-N

> <BindingDB MonomerID>
50018822

> <BindingDB Ligand Name>
CHEMBL3286812

> <Target Name>
ALK tyrosine kinase receptor

> <Target Source Organism According to Curator or DataSource>
Homo sapiens

> <Ki (nM)>


> <IC50 (nM)>
 16

> <Kd (nM)>


> <EC50 (nM)>


> <kon (M-1-s-1)>


> <koff (s-1)>


> <pH>


> <Temp C>


> <Curation/DataSource>
ChEMBL

> <Article DOI>
10.1021/jm500261q

> <BindingDB Entry DOI>
10.7270/Q2K35W68

> <PMID>
24819116

> <PubChem AID>


> <Patent Number>


> <Authors>
Johnson, TW; Richardson, PF; Bailey, S; Brooun, A; Burke, BJ; Collins, MR; Cui, JJ; Deal, JG; Deng, YL; Dinh, D; Engstrom, LD; He, M; Hoffman, J; Hoffman, RL; Huang, Q; Kania, RS; Kath, JC; Lam, H; Lam, JL; Le, PT; Lingardo, L; Liu, W; McTigue, M; Palmer, CL; Sach, NW; Smeal, T; Smith, GL; Stewart, AE; Timofeevski, S; Zhu, H; Zhu, J; Zou, HY; Edwards, MP

> <Date of publication>
6/12/2014

> <Date in BindingDB>
2/11/2015

> <Institution>
Pfizer Inc

> <Link to Ligand in BindingDB>
http://www.bindingdb.org/bind/chemsearch/marvin/MolStructure.jsp?monomerid=50018822

> <Link to Ligand-Target Pair in BindingDB>
http://www.bindingdb.org/jsp/dbsearch/PrimarySearch_ki.jsp?energyterm=kJ/mole&tag=pol&polymerid=5809&target=ALK+tyrosine+kinase+receptor&column=ki&startPg=0&Increment=50&submit=Search

> <Link to Ligand-Target Pair in BindingDB>
http://www.bindingdb.org/jsp/dbsearch/PrimarySearch_ki.jsp?energyterm=kJ/mole&tag=r21&monomerid=50018822&enzyme=ALK+tyrosine+kinase+receptor&column=ki&startPg=0&Increment=50&submit=Search

> <Ligand HET ID in PDB>
YPW

> <PDB ID(s) for Ligand-Target Complex>
4CMO

> <PubChem CID of Ligand>
73819542

> <PubChem SID of Ligand>
103929875

> <ChEBI ID of Ligand>


> <ChEMBL ID of Ligand>
CHEMBL3286812

> <DrugBank ID of Ligand>


> <IUPHAR_GRAC ID of Ligand>


> <KEGG ID of Ligand>


> <ZINC ID of Ligand>
ZINC33891515

> <Number of Protein Chains in Target (bigger than 1 implies a multichain complex)>
1

> <BindingDB Target Chain Sequence>
MGAIGLLWLLPLLLSTAAVGSGMGTGQRAGSPAAGPPLQPREPLSYSRLQRKSLAVDFVVPSLFRVYARDLLLPPSSSELKAGRPEARGSLALDCAPLLRLLGPAPGVSWTAGSPAPAEARTLSRVLKGGSVRKLRRAKQLVLELGEEAILEGCVGPPGEAAVGLLQFNLSELFSWWIRQGEGRLRIRLMPEKKASEVGREGRLSAAIRASQPRLLFQIFGTGHSSLESPTNMPSPSPDYFTWNLTWIMKDSFPFLSHRSRYGLECSFDFPCELEYSPPLHDLRNQSWSWRRIPSEEASQMDLLDGPGAERSKEMPRGSFLLLNTSADSKHTILSPWMRSSSEHCTLAVSVHRHLQPSGRYIAQLLPHNEAAREILLMPTPGKHGWTVLQGRIGRPDNPFRVALEYISSGNRSLSAVDFFALKNCSEGTSPGSKMALQSSFTCWNGTVLQLGQACDFHQDCAQGEDESQMCRKLPVGFYCNFEDGFCGWTQGTLSPHTPQWQVRTLKDARFQDHQDHALLLSTTDVPASESATVTSATFPAPIKSSPCELRMSWLIRGVLRGNVSLVLVENKTGKEQGRMVWHVAAYEGLSLWQWMVLPLLDVSDRFWLQMVAWWGQGSRAIVAFDNISISLDCYLTISGEDKILQNTAPKSRNLFERNPNKELKPGENSPRQTPIFDPTVHWLFTTCGASGPHGPTQAQCNNAYQNSNLSVEVGSEGPLKGIQIWKVPATDTYSISGYGAAGGKGGKNTMMRSHGVSVLGIFNLEKDDMLYILVGQQGEDACPSTNQLIQKVCIGENNVIEEEIRVNRSVHEWAGGGGGGGGATYVFKMKDGVPVPLIIAAGGGGRAYGAKTDTFHPERLENNSSVLGLNGNSGAAGGGGGWNDNTSLLWAGKSLQEGATGGHSCPQAMKKWGWETRGGFGGGGGGCSSGGGGGGYIGGNAASNNDPEMDGEDGVSFISPLGILYTPALKVMEGHGEVNIKHYLNCSHCEVDECHMDPESHKVICFCDHGTVLAEDGVSCIVSPTPEPHLPLSLILSVVTSALVAALVLAFSGIMIVYRRKHQELQAMQMELQSPEYKLSKLRTSTIMTDYNPNYCFAGKTSSISDLKEVPRKNITLIRGLGHGAFGEVYEGQVSGMPNDPSPLQVAVKTLPEVCSEQDELDFLMEALIISKFNHQNIVRCIGVSLQSLPRFILLELMAGGDLKSFLRETRPRPSQPSSLAMLDLLHVARDIACGCQYLEENHFIHRDIAARNCLLTCPGPGRVAKIGDFGMARDIYRASYYRKGGCAMLPVKWMPPEAFMEGIFTSKTDTWSFGVLLWEIFSLGYMPYPSKSNQEVLEFVTSGGRMDPPKNCPGPVYRIMTQCWQHQPEDRPNFAIILERIEYCTQDPDVINTALPIEYGPLVEEEEKVPVRPKDPEGVPPLLVSQQAKREEERSPAAPPPLPTTSSGKAAKKPTAAEISVRVPRGPAVEGGHVNMAFSQSNPPSELHKVHGSRNKPTSLWNPTYGSWFTEKPTKKNNPIAKKEPHDRGNLGLEGSCTVPPNVATGRLPGASLLLEPSSLTANMKEVPLFRLRHFPCGNVNYGYQQQGLPLEAATAPGAGHYEDTILKSKNSMNQPGP

> <PDB ID(s) of Target Chain>
2XB7,2XBA,3AOX,5FTO,5FTQ,6E0R,6EBW,6EDL,6MX8,7JY4,7JYR,7JYS,7JYT,7LS0,7MZW,7MZY,7N00,7NX3,7NX4,8ARJ

> <UniProt (SwissProt) Recommended Name of Target Chain>
ALK tyrosine kinase receptor

> <UniProt (SwissProt) Entry Name of Target Chain>
ALK_HUMAN

> <UniProt (SwissProt) Primary ID of Target Chain>
Q9UM73

> <UniProt (SwissProt) Secondary ID(s) of Target Chain>
A6P4T4 A6P4V4 Q4ZFX9 Q53QQ6 Q53RZ4 Q59FI3 Q9Y4K6

> <UniProt (SwissProt) Alternative ID(s) of Target Chain>


> <UniProt (TrEMBL) Submitted Name of Target Chain>


> <UniProt (TrEMBL) Entry Name of Target Chain>


> <UniProt (TrEMBL) Primary ID of Target Chain>


> <UniProt (TrEMBL) Secondary ID(s) of Target Chain>


> <UniProt (TrEMBL) Alternative ID(s) of Target Chain>


$$$$

  SciTegic09261414532D

 30 33  0  0  0  0            999 V2000
   15.5386   -5.1488    0.0000 O   0  0
   14.8183   -5.5433    0.0000 C   0  0  1  0  0  0
   14.1133   -5.1148    0.0000 C   0  0
   14.1378   -4.2915    0.0000 C   0  0
   13.4336   -3.8630    0.0000 C   0  0
   12.7123   -4.2576    0.0000 C   0  0
   12.6952   -5.0851    0.0000 C   0  0
   13.4001   -5.5098    0.0000 C   0  0
   14.8637   -3.8992    0.0000 C   0  0
   11.9721   -5.4822    0.0000 F   0  0
   18.4105   -4.3883    0.0000 C   0  0
   16.2248   -5.5766    0.0000 C   0  0
   17.6719   -5.6120    0.0000 C   0  0
   16.2249   -6.4022    0.0000 C   0  0
   16.9702   -5.1828    0.0000 C   0  0
   17.6523   -6.4363    0.0000 C   0  0
   16.9309   -6.8314    0.0000 N   0  0
   15.4994   -6.7973    0.0000 N   0  0
   18.3950   -5.2168    0.0000 C   0  0
   19.1710   -5.4856    0.0000 C   0  0
   19.6711   -4.8299    0.0000 N   0  0
   19.2011   -4.1567    0.0000 N   0  0
   14.3999   -6.2556    0.0000 C   0  0
   15.5793   -4.3397    0.0000 O   0  0
   14.8873   -3.0593    0.0000 N   0  0
   15.6266   -2.6597    0.0000 C   0  0
   14.1716   -2.6188    0.0000 C   0  0
   20.5114   -4.8476    0.0000 C   0  0
   19.4137   -6.2884    0.0000 C   0  0
   19.6562   -7.0930    0.0000 N   0  0
 12  1  1  0
  1  2  1  0
  2  3  1  0
  3  4  2  0
  4  5  1  0
  5  6  2  0
  6  7  1  0
  7  8  2  0
  8  3  1  0
  4  9  1  0
  7 10  1  0
 14 12  1  0
 12 15  2  0
 15 13  1  0
 13 16  2  0
 16 17  1  0
 14 17  2  0
 14 18  1  0
 13 19  1  0
 11 19  1  0
 19 20  2  0
 20 21  1  0
 21 22  1  0
 22 11  2  0
  2 23  1  6
  9 24  2  0
  9 25  1  0
 25 26  1  0
 25 27  1  0
 26 11  1  0
 21 28  1  0
 29 30  3  0
 20 29  1  0
M  END
> <From>
www.bindingDB.org

> <BindingDB Reactant_set_id>
50103639

> <Ligand InChI>
InChI=1S/C21H19FN6O2/c1-11-15-7-13(22)4-5-14(15)21(29)27(2)10-16-19(17(8-23)28(3)26-16)12-6-18(30-11)20(24)25-9-12/h4-7,9,11H,10H2,1-3H3,(H2,24,25)/t11-/m1/s1

> <Ligand InChI Key>
IIXWYSCJSQVBQM-LLVKDONJSA-N

> <BindingDB MonomerID>
50018830

> <BindingDB Ligand Name>
CHEMBL3286830::US10543199, Compound PF-06463922::US10780082, Compound PF-06463922::US11517561, Compound PF-06463922

> <Target Name>
Activated CDC42 kinase 1

> <Target Source Organism According to Curator or DataSource>
Homo sapiens

> <Ki (nM)>


> <IC50 (nM)>
 17

> <Kd (nM)>


> <EC50 (nM)>


> <kon (M-1-s-1)>


> <koff (s-1)>


> <pH>


> <Temp C>


> <Curation/DataSource>
ChEMBL

> <Article DOI>
10.1021/jm500261q

> <BindingDB Entry DOI>
10.7270/Q2K35W68

> <PMID>
24819116

> <PubChem AID>


> <Patent Number>


> <Authors>
Johnson, TW; Richardson, PF; Bailey, S; Brooun, A; Burke, BJ; Collins, MR; Cui, JJ; Deal, JG; Deng, YL; Dinh, D; Engstrom, LD; He, M; Hoffman, J; Hoffman, RL; Huang, Q; Kania, RS; Kath, JC; Lam, H; Lam, JL; Le, PT; Lingardo, L; Liu, W; McTigue, M; Palmer, CL; Sach, NW; Smeal, T; Smith, GL; Stewart, AE; Timofeevski, S; Zhu, H; Zhu, J; Zou, HY; Edwards, MP

> <Date of publication>
6/12/2014

> <Date in BindingDB>
2/11/2015

> <Institution>
Pfizer Inc

> <Link to Ligand in BindingDB>
http://www.bindingdb.org/bind/chemsearch/marvin/MolStructure.jsp?monomerid=50018830

> <Link to Ligand-Target Pair in BindingDB>
http://www.bindingdb.org/jsp/dbsearch/PrimarySearch_ki.jsp?energyterm=kJ/mole&tag=pol&polymerid=5516&target=Activated+CDC42+kinase+1&column=ki&startPg=0&Increment=50&submit=Search

> <Link to Ligand-Target Pair in BindingDB>
http://www.bindingdb.org/jsp/dbsearch/PrimarySearch_ki.jsp?energyterm=kJ/mole&tag=r21&monomerid=50018830&enzyme=Activated+CDC42+kinase+1&column=ki&startPg=0&Increment=50&submit=Search

> <Ligand HET ID in PDB>
53P

> <PDB ID(s) for Ligand-Target Complex>


> <PubChem CID of Ligand>
71731823

> <PubChem SID of Ligand>
103929883

> <ChEBI ID of Ligand>


> <ChEMBL ID of Ligand>
CHEMBL3286830

> <DrugBank ID of Ligand>


> <IUPHAR_GRAC ID of Ligand>


> <KEGG ID of Ligand>


> <ZINC ID of Ligand>
ZINC33891516

> <Number of Protein Chains in Target (bigger than 1 implies a multichain complex)>
1

> <BindingDB Target Chain Sequence>
MQPEEGTGWLLELLSEVQLQQYFLRLRDDLNVTRLSHFEYVKNEDLEKIGMGRPGQRRLWEAVKRRKALCKRKSWMSKVFSGKRLEAEFPPHHSQSTFRKTSPAPGGPAGEGPLQSLTCLIGEKDLRLLEKLGDGSFGVVRRGEWDAPSGKTVSVAVKCLKPDVLSQPEAMDDFIREVNAMHSLDHRNLIRLYGVVLTPPMKMVTELAPLGSLLDRLRKHQGHFLLGTLSRYAVQVAEGMGYLESKRFIHRDLAARNLLLATRDLVKIGDFGLMRALPQNDDHYVMQEHRKVPFAWCAPESLKTRTFSHASDTWMFGVTLWEMFTYGQEPWIGLNGSQILHKIDKEGERLPRPEDCPQDIYNVMVQCWAHKPEDRPTFVALRDFLLEAQPTDMRALQDFEEPDKLHIQMNDVITVIEGRAENYWWRGQNTRTLCVGPFPRNVVTSVAGLSAQDISQPLQNSFIHTGHGDSDPRHCWGFPDRIDELYLGNPMDPPDLLSVELSTSRPPQHLGGVKKPTYDPVSEDQDPLSSDFKRLGLRKPGLPRGLWLAKPSARVPGTKASRGSGAEVTLIDFGEEPVVPALRPCAPSLAQLAMDACSLLDETPPQSPTRALPRPLHPTPVVDWDARPLPPPPAYDDVAQDEDDFEICSINSTLVGAGVPAGPSQGQTNYAFVPEQARPPPPLEDNLFLPPQGGGKPPSSAQTAEIFQALQQECMRQLQAPAGSPAPSPSPGGDDKPQVPPRVPIPPRPTRPHVQLSPAPPGEEETSQWPGPASPPRVPPREPLSPQGSRTPSPLVPPGSSPLPPRLSSSPGKTMPTTQSFASDPKYATPQVIQAPGPRAGPCILPIVRDGKKVSSTHYYLLPERPSYLERYQRFLREAQSPEEPTPLPVPLLLPPPSTPAPAAPTATVRPMPQAALDPKANFSTNNSNPGARPPPPRATARLPQRGCPGDGPEAGRPADKIQMAMVHGVTTEECQAALQCHGWSVQRAAQYLKVEQLFGLGLRPRGECHKVLEMFDWNLEQAGCHLLGSWGPAHHKR

> <PDB ID(s) of Target Chain>
3EQP,3EQR,4EWH,4HZR,4HZS,4ID7,5ZXB,7KP6,8FZ3,8THA

> <UniProt (SwissProt) Recommended Name of Target Chain>
Activated CDC42 kinase 1

> <UniProt (SwissProt) Entry Name of Target Chain>
ACK1_HUMAN

> <UniProt (SwissProt) Primary ID of Target Chain>
Q07912

> <UniProt (SwissProt) Secondary ID(s) of Target Chain>
Q6ZMQ0 Q8N6U7 Q96H59

> <UniProt (SwissProt) Alternative ID(s) of Target Chain>


> <UniProt (TrEMBL) Submitted Name of Target Chain>


> <UniProt (TrEMBL) Entry Name of Target Chain>


> <UniProt (TrEMBL) Primary ID of Target Chain>


> <UniProt (TrEMBL) Secondary ID(s) of Target Chain>


> <UniProt (TrEMBL) Alternative ID(s) of Target Chain>


$$$$

  SciTegic09261414532D

 30 33  0  0  0  0            999 V2000
   15.5386   -5.1488    0.0000 O   0  0
   14.8183   -5.5433    0.0000 C   0  0  1  0  0  0
   14.1133   -5.1148    0.0000 C   0  0
   14.1378   -4.2915    0.0000 C   0  0
   13.4336   -3.8630    0.0000 C   0  0
   12.7123   -4.2576    0.0000 C   0  0
   12.6952   -5.0851    0.0000 C   0  0
   13.4001   -5.5098    0.0000 C   0  0
   14.8637   -3.8992    0.0000 C   0  0
   11.9721   -5.4822    0.0000 F   0  0
   18.4105   -4.3883    0.0000 C   0  0
   16.2248   -5.5766    0.0000 C   0  0
   17.6719   -5.6120    0.0000 C   0  0
   16.2249   -6.4022    0.0000 C   0  0
   16.9702   -5.1828    0.0000 C   0  0
   17.6523   -6.4363    0.0000 C   0  0
   16.9309   -6.8314    0.0000 N   0  0
   15.4994   -6.7973    0.0000 N   0  0
   18.3950   -5.2168    0.0000 C   0  0
   19.1710   -5.4856    0.0000 C   0  0
   19.6711   -4.8299    0.0000 N   0  0
   19.2011   -4.1567    0.0000 N   0  0
   14.3999   -6.2556    0.0000 C   0  0
   15.5793   -4.3397    0.0000 O   0  0
   14.8873   -3.0593    0.0000 N   0  0
   15.6266   -2.6597    0.0000 C   0  0
   14.1716   -2.6188    0.0000 C   0  0
   20.5114   -4.8476    0.0000 C   0  0
   19.4137   -6.2884    0.0000 C   0  0
   19.6562   -7.0930    0.0000 N   0  0
 12  1  1  0
  1  2  1  0
  2  3  1  0
  3  4  2  0
  4  5  1  0
  5  6  2  0
  6  7  1  0
  7  8  2  0
  8  3  1  0
  4  9  1  0
  7 10  1  0
 14 12  1  0
 12 15  2  0
 15 13  1  0
 13 16  2  0
 16 17  1  0
 14 17  2  0
 14 18  1  0
 13 19  1  0
 11 19  1  0
 19 20  2  0
 20 21  1  0
 21 22  1  0
 22 11  2  0
  2 23  1  6
  9 24  2  0
  9 25  1  0
 25 26  1  0
 25 27  1  0
 26 11  1  0
 21 28  1  0
 29 30  3  0
 20 29  1  0
M  END
> <From>
www.bindingDB.org

> <BindingDB Reactant_set_id>
50103640

> <Ligand InChI>
InChI=1S/C21H19FN6O2/c1-11-15-7-13(22)4-5-14(15)21(29)27(2)10-16-19(17(8-23)28(3)26-16)12-6-18(30-11)20(24)25-9-12/h4-7,9,11H,10H2,1-3H3,(H2,24,25)/t11-/m1/s1

> <Ligand InChI Key>
IIXWYSCJSQVBQM-LLVKDONJSA-N

> <BindingDB MonomerID>
50018830

> <BindingDB Ligand Name>
CHEMBL3286830::US10543199, Compound PF-06463922::US10780082, Compound PF-06463922::US11517561, Compound PF-06463922

> <Target Name>
Focal adhesion kinase 1

> <Target Source Organism According to Curator or DataSource>
Homo sapiens

> <Ki (nM)>


> <IC50 (nM)>
 17

> <Kd (nM)>


> <EC50 (nM)>


> <kon (M-1-s-1)>


> <koff (s-1)>


> <pH>


> <Temp C>


> <Curation/DataSource>
ChEMBL

> <Article DOI>
10.1021/jm500261q

> <BindingDB Entry DOI>
10.7270/Q2K35W68

> <PMID>
24819116

> <PubChem AID>


> <Patent Number>


> <Authors>
Johnson, TW; Richardson, PF; Bailey, S; Brooun, A; Burke, BJ; Collins, MR; Cui, JJ; Deal, JG; Deng, YL; Dinh, D; Engstrom, LD; He, M; Hoffman, J; Hoffman, RL; Huang, Q; Kania, RS; Kath, JC; Lam, H; Lam, JL; Le, PT; Lingardo, L; Liu, W; McTigue, M; Palmer, CL; Sach, NW; Smeal, T; Smith, GL; Stewart, AE; Timofeevski, S; Zhu, H; Zhu, J; Zou, HY; Edwards, MP

> <Date of publication>
6/12/2014

> <Date in BindingDB>
2/11/2015

> <Institution>
Pfizer Inc

> <Link to Ligand in BindingDB>
http://www.bindingdb.org/bind/chemsearch/marvin/MolStructure.jsp?monomerid=50018830

> <Link to Ligand-Target Pair in BindingDB>
http://www.bindingdb.org/jsp/dbsearch/PrimarySearch_ki.jsp?energyterm=kJ/mole&tag=pol&polymerid=2871&target=Focal+adhesion+kinase+1&column=ki&startPg=0&Increment=50&submit=Search

> <Link to Ligand-Target Pair in BindingDB>
http://www.bindingdb.org/jsp/dbsearch/PrimarySearch_ki.jsp?energyterm=kJ/mole&tag=r21&monomerid=50018830&enzyme=Focal+adhesion+kinase+1&column=ki&startPg=0&Increment=50&submit=Search

> <Ligand HET ID in PDB>
53P

> <PDB ID(s) for Ligand-Target Complex>


> <PubChem CID of Ligand>
71731823

> <PubChem SID of Ligand>
103929883

> <ChEBI ID of Ligand>


> <ChEMBL ID of Ligand>
CHEMBL3286830

> <DrugBank ID of Ligand>


> <IUPHAR_GRAC ID of Ligand>


> <KEGG ID of Ligand>


> <ZINC ID of Ligand>
ZINC33891516

> <Number of Protein Chains in Target (bigger than 1 implies a multichain complex)>
1

> <BindingDB Target Chain Sequence>
MAAAYLDPNLNHTPNSSTKTHLGTGMERSPGAMERVLKVFHYFESNSEPTTWASIIRHGDATDVRGIIQKIVDSHKVKHVACYGFRLSHLRSEEVHWLHVDMGVSSVREKYELAHPPEEWKYELRIRYLPKGFLNQFTEDKPTLNFFYQQVKSDYMLEIADQVDQEIALKLGCLEIRRSYWEMRGNALEKKSNYEVLEKDVGLKRFFPKSLLDSVKAKTLRKLIQQTFRQFANLNREESILKFFEILSPVYRFDKECFKCALGSSWIISVELAIGPEEGISYLTDKGCNPTHLADFTQVQTIQYSNSEDKDRKGMLQLKIAGAPEPLTVTAPSLTIAENMADLIDGYCRLVNGTSQSFIIRPQKEGERALPSIPKLANSEKQGMRTHAVSVSETDDYAEIIDEEDTYTMPSTRDYEIQRERIELGRCIGEGQFGDVHQGIYMSPENPALAVAIKTCKNCTSDSVREKFLQEALTMRQFDHPHIVKLIGVITENPVWIIMELCTLGELRSFLQVRKYSLDLASLILYAYQLSTALAYLESKRFVHRDIAARNVLVSSNDCVKLGDFGLSRYMEDSTYYKASKGKLPIKWMAPESINFRRFTSASDVWMFGVCMWEILMHGVKPFQGVKNNDVIGRIENGERLPMPPNCPPTLYSLMTKCWAYDPSRRPRFTELKAQLSTILEEEKAQQEERMRMESRRQATVSWDSGGSDEAPPKPSRPGYPSPRSSEGFYPSPQHMVQTNHYQVSGYPGSHGITAMAGSIYPGQASLLDQTDSWNHRPQEIAMWQPNVEDSTVLDLRGIGQVLPTHLMEERLIRQQQEMEEDQRWLEKEERFLKPDVRLSRGSIDREDGSLQGPIGNQHIYQPVGKPDPAAPPKKPPRPGAPGHLGSLASLSSPADSYNEGVKLQPQEISPPPTANLDRSNDKVYENVTGLVKAVIEMSSKIQPAPPEEYVPMVKEVGLALRTLLATVDETIPLLPASTHREIEMAQKLLNSDLGELINKMKLAQQYVMTSLQQEYKKQMLTAAHALAVDAKNLLDVIDQARLKMLGQTRPH

> <PDB ID(s) of Target Chain>
1K04,1K05,1KTM,1MP8,1OW6,1OW7,1OW8,2ETM,2IJM,2L6F,2L6G,2L6H,3B71,3BZ3,3PXK,3S9O,4EBV,4EBW,4GU6,4GU9,4I4E,4I4F,4K8A,4K9Y,4KAB,4KAO,4NY0,4Q9S,6I8Z,6PW8,6YOJ,6YQ1,6YR9,6YT6,6YVS,6YVY,6YXV,7W7Z,7W8B,7W8I,7W9U

> <UniProt (SwissProt) Recommended Name of Target Chain>
Focal adhesion kinase 1

> <UniProt (SwissProt) Entry Name of Target Chain>
FAK1_HUMAN

> <UniProt (SwissProt) Primary ID of Target Chain>
Q05397

> <UniProt (SwissProt) Secondary ID(s) of Target Chain>
B4E2N6 F5H4S4 J3QT16 Q14291 Q8IYN9 Q9UD85

> <UniProt (SwissProt) Alternative ID(s) of Target Chain>


> <UniProt (TrEMBL) Submitted Name of Target Chain>


> <UniProt (TrEMBL) Entry Name of Target Chain>


> <UniProt (TrEMBL) Primary ID of Target Chain>


> <UniProt (TrEMBL) Secondary ID(s) of Target Chain>


> <UniProt (TrEMBL) Alternative ID(s) of Target Chain>


$$$$

  SciTegic09261414532D

 28 31  0  0  0  0            999 V2000
    7.8967   -4.3757    0.0000 O   0  0
    7.1797   -4.7676    0.0000 C   0  0  1  0  0  0
    6.4817   -4.3426    0.0000 C   0  0
    6.5055   -3.5254    0.0000 C   0  0
    5.8084   -3.1005    0.0000 C   0  0
    5.0903   -3.4925    0.0000 C   0  0
    5.0738   -4.3138    0.0000 C   0  0
    5.7716   -4.7350    0.0000 C   0  0
    7.2238   -3.1357    0.0000 O   0  0
    7.9204   -3.5629    0.0000 C   0  0
    8.6387   -3.1731    0.0000 C   0  0
    4.3581   -4.7082    0.0000 F   0  0
   10.7432   -3.6237    0.0000 C   0  0
    8.5764   -4.8000    0.0000 C   0  0
   10.0126   -4.8344    0.0000 C   0  0
    8.5765   -5.6193    0.0000 C   0  0
    9.3137   -4.4088    0.0000 C   0  0
    9.9935   -5.6525    0.0000 C   0  0
    9.2754   -6.0449    0.0000 N   0  0
    7.8585   -6.0118    0.0000 N   0  0
   10.7282   -4.4419    0.0000 C   0  0
   11.4992   -4.7115    0.0000 C   0  0
   11.9940   -4.0614    0.0000 N   0  0
   11.5286   -3.3902    0.0000 N   0  0
   11.7350   -5.4931    0.0000 C   0  0
   11.9702   -6.2757    0.0000 N   0  0
   12.8110   -4.0795    0.0000 C   0  0
    6.7645   -5.4727    0.0000 C   0  0
 14  1  1  0
  1  2  1  0
  2  3  1  0
  3  4  2  0
  4  5  1  0
  5  6  2  0
  6  7  1  0
  7  8  2  0
  8  3  1  0
  4  9  1  0
  9 10  1  0
 10 11  1  0
  7 12  1  0
 16 14  1  0
 14 17  2  0
 17 15  1  0
 15 18  2  0
 18 19  1  0
 16 19  2  0
 16 20  1  0
 15 21  1  0
 13 21  1  0
 21 22  2  0
 22 23  1  0
 23 24  1  0
 24 13  2  0
 25 26  3  0
 22 25  1  0
 13 11  1  0
 23 27  1  0
  2 28  1  6
M  END
> <From>
www.bindingDB.org

> <BindingDB Reactant_set_id>
50103714

> <Ligand InChI>
InChI=1S/C20H18FN5O2/c1-11-14-8-13(21)3-4-17(14)27-6-5-15-19(16(9-22)26(2)25-15)12-7-18(28-11)20(23)24-10-12/h3-4,7-8,10-11H,5-6H2,1-2H3,(H2,23,24)/t11-/m1/s1

> <Ligand InChI Key>
IEZBZICPLSCIAC-LLVKDONJSA-N

> <BindingDB MonomerID>
50018828

> <BindingDB Ligand Name>
CHEMBL3286818

> <Target Name>
ALK tyrosine kinase receptor

> <Target Source Organism According to Curator or DataSource>
Homo sapiens

> <Ki (nM)>


> <IC50 (nM)>
 20

> <Kd (nM)>


> <EC50 (nM)>


> <kon (M-1-s-1)>


> <koff (s-1)>


> <pH>


> <Temp C>


> <Curation/DataSource>
ChEMBL

> <Article DOI>
10.1021/jm500261q

> <BindingDB Entry DOI>
10.7270/Q2K35W68

> <PMID>
24819116

> <PubChem AID>


> <Patent Number>


> <Authors>
Johnson, TW; Richardson, PF; Bailey, S; Brooun, A; Burke, BJ; Collins, MR; Cui, JJ; Deal, JG; Deng, YL; Dinh, D; Engstrom, LD; He, M; Hoffman, J; Hoffman, RL; Huang, Q; Kania, RS; Kath, JC; Lam, H; Lam, JL; Le, PT; Lingardo, L; Liu, W; McTigue, M; Palmer, CL; Sach, NW; Smeal, T; Smith, GL; Stewart, AE; Timofeevski, S; Zhu, H; Zhu, J; Zou, HY; Edwards, MP

> <Date of publication>
6/12/2014

> <Date in BindingDB>
2/11/2015

> <Institution>
Pfizer Inc

> <Link to Ligand in BindingDB>
http://www.bindingdb.org/bind/chemsearch/marvin/MolStructure.jsp?monomerid=50018828

> <Link to Ligand-Target Pair in BindingDB>
http://www.bindingdb.org/jsp/dbsearch/PrimarySearch_ki.jsp?energyterm=kJ/mole&tag=pol&polymerid=5809&target=ALK+tyrosine+kinase+receptor&column=ki&startPg=0&Increment=50&submit=Search

> <Link to Ligand-Target Pair in BindingDB>
http://www.bindingdb.org/jsp/dbsearch/PrimarySearch_ki.jsp?energyterm=kJ/mole&tag=r21&monomerid=50018828&enzyme=ALK+tyrosine+kinase+receptor&column=ki&startPg=0&Increment=50&submit=Search

> <Ligand HET ID in PDB>


> <PDB ID(s) for Ligand-Target Complex>


> <PubChem CID of Ligand>
90644196

> <PubChem SID of Ligand>
103929881

> <ChEBI ID of Ligand>


> <ChEMBL ID of Ligand>
CHEMBL3286818

> <DrugBank ID of Ligand>


> <IUPHAR_GRAC ID of Ligand>


> <KEGG ID of Ligand>


> <ZINC ID of Ligand>
ZINC33891514

> <Number of Protein Chains in Target (bigger than 1 implies a multichain complex)>
1

> <BindingDB Target Chain Sequence>
MGAIGLLWLLPLLLSTAAVGSGMGTGQRAGSPAAGPPLQPREPLSYSRLQRKSLAVDFVVPSLFRVYARDLLLPPSSSELKAGRPEARGSLALDCAPLLRLLGPAPGVSWTAGSPAPAEARTLSRVLKGGSVRKLRRAKQLVLELGEEAILEGCVGPPGEAAVGLLQFNLSELFSWWIRQGEGRLRIRLMPEKKASEVGREGRLSAAIRASQPRLLFQIFGTGHSSLESPTNMPSPSPDYFTWNLTWIMKDSFPFLSHRSRYGLECSFDFPCELEYSPPLHDLRNQSWSWRRIPSEEASQMDLLDGPGAERSKEMPRGSFLLLNTSADSKHTILSPWMRSSSEHCTLAVSVHRHLQPSGRYIAQLLPHNEAAREILLMPTPGKHGWTVLQGRIGRPDNPFRVALEYISSGNRSLSAVDFFALKNCSEGTSPGSKMALQSSFTCWNGTVLQLGQACDFHQDCAQGEDESQMCRKLPVGFYCNFEDGFCGWTQGTLSPHTPQWQVRTLKDARFQDHQDHALLLSTTDVPASESATVTSATFPAPIKSSPCELRMSWLIRGVLRGNVSLVLVENKTGKEQGRMVWHVAAYEGLSLWQWMVLPLLDVSDRFWLQMVAWWGQGSRAIVAFDNISISLDCYLTISGEDKILQNTAPKSRNLFERNPNKELKPGENSPRQTPIFDPTVHWLFTTCGASGPHGPTQAQCNNAYQNSNLSVEVGSEGPLKGIQIWKVPATDTYSISGYGAAGGKGGKNTMMRSHGVSVLGIFNLEKDDMLYILVGQQGEDACPSTNQLIQKVCIGENNVIEEEIRVNRSVHEWAGGGGGGGGATYVFKMKDGVPVPLIIAAGGGGRAYGAKTDTFHPERLENNSSVLGLNGNSGAAGGGGGWNDNTSLLWAGKSLQEGATGGHSCPQAMKKWGWETRGGFGGGGGGCSSGGGGGGYIGGNAASNNDPEMDGEDGVSFISPLGILYTPALKVMEGHGEVNIKHYLNCSHCEVDECHMDPESHKVICFCDHGTVLAEDGVSCIVSPTPEPHLPLSLILSVVTSALVAALVLAFSGIMIVYRRKHQELQAMQMELQSPEYKLSKLRTSTIMTDYNPNYCFAGKTSSISDLKEVPRKNITLIRGLGHGAFGEVYEGQVSGMPNDPSPLQVAVKTLPEVCSEQDELDFLMEALIISKFNHQNIVRCIGVSLQSLPRFILLELMAGGDLKSFLRETRPRPSQPSSLAMLDLLHVARDIACGCQYLEENHFIHRDIAARNCLLTCPGPGRVAKIGDFGMARDIYRASYYRKGGCAMLPVKWMPPEAFMEGIFTSKTDTWSFGVLLWEIFSLGYMPYPSKSNQEVLEFVTSGGRMDPPKNCPGPVYRIMTQCWQHQPEDRPNFAIILERIEYCTQDPDVINTALPIEYGPLVEEEEKVPVRPKDPEGVPPLLVSQQAKREEERSPAAPPPLPTTSSGKAAKKPTAAEISVRVPRGPAVEGGHVNMAFSQSNPPSELHKVHGSRNKPTSLWNPTYGSWFTEKPTKKNNPIAKKEPHDRGNLGLEGSCTVPPNVATGRLPGASLLLEPSSLTANMKEVPLFRLRHFPCGNVNYGYQQQGLPLEAATAPGAGHYEDTILKSKNSMNQPGP

> <PDB ID(s) of Target Chain>
2XB7,2XBA,3AOX,5FTO,5FTQ,6E0R,6EBW,6EDL,6MX8,7JY4,7JYR,7JYS,7JYT,7LS0,7MZW,7MZY,7N00,7NX3,7NX4,8ARJ

> <UniProt (SwissProt) Recommended Name of Target Chain>
ALK tyrosine kinase receptor

> <UniProt (SwissProt) Entry Name of Target Chain>
ALK_HUMAN

> <UniProt (SwissProt) Primary ID of Target Chain>
Q9UM73

> <UniProt (SwissProt) Secondary ID(s) of Target Chain>
A6P4T4 A6P4V4 Q4ZFX9 Q53QQ6 Q53RZ4 Q59FI3 Q9Y4K6

> <UniProt (SwissProt) Alternative ID(s) of Target Chain>


> <UniProt (TrEMBL) Submitted Name of Target Chain>


> <UniProt (TrEMBL) Entry Name of Target Chain>


> <UniProt (TrEMBL) Primary ID of Target Chain>


> <UniProt (TrEMBL) Secondary ID(s) of Target Chain>


> <UniProt (TrEMBL) Alternative ID(s) of Target Chain>


$$$$

  SciTegic09261414532D

 29 32  0  0  0  0            999 V2000
    7.9716   -4.4172    0.0000 O   0  0
    7.2478   -4.8128    0.0000 C   0  0  1  0  0  0
    6.5432   -4.3838    0.0000 C   0  0
    6.5672   -3.5588    0.0000 C   0  0
    5.8635   -3.1299    0.0000 C   0  0
    5.1386   -3.5256    0.0000 C   0  0
    5.1219   -4.3547    0.0000 C   0  0
    5.8263   -4.7799    0.0000 C   0  0
    7.2923   -3.1654    0.0000 O   0  0
    7.9955   -3.5967    0.0000 C   0  0
    8.7206   -3.2032    0.0000 C   0  0
    4.3994   -4.7528    0.0000 F   0  0
   10.8451   -3.6581    0.0000 C   0  0
    8.6577   -4.8455    0.0000 C   0  0
   10.1075   -4.8802    0.0000 C   0  0
    8.6578   -5.6726    0.0000 C   0  0
    9.4020   -4.4506    0.0000 C   0  0
   10.0883   -5.7061    0.0000 C   0  0
    9.3633   -6.1022    0.0000 N   0  0
    7.9330   -6.0688    0.0000 N   0  0
   10.8299   -4.4840    0.0000 C   0  0
   11.6082   -4.7562    0.0000 C   0  0
   12.1077   -4.0999    0.0000 N   0  0
   11.6379   -3.4223    0.0000 N   0  0
   11.8463   -5.5452    0.0000 C   0  0
   12.0837   -6.3352    0.0000 N   0  0
   12.9325   -4.1182    0.0000 C   0  0
    6.8286   -5.5246    0.0000 C   0  0
    9.4239   -3.6344    0.0000 C   0  0
 14  1  1  0
  1  2  1  0
  2  3  1  0
  3  4  2  0
  4  5  1  0
  5  6  2  0
  6  7  1  0
  7  8  2  0
  8  3  1  0
  4  9  1  0
  9 10  1  0
 10 11  1  0
  7 12  1  0
 16 14  1  0
 14 17  2  0
 17 15  1  0
 15 18  2  0
 18 19  1  0
 16 19  2  0
 16 20  1  0
 15 21  1  0
 13 21  1  0
 21 22  2  0
 22 23  1  0
 23 24  1  0
 24 13  2  0
 25 26  3  0
 22 25  1  0
 23 27  1  0
  2 28  1  6
 11 29  1  0
 29 13  1  0
M  END
> <From>
www.bindingDB.org

> <BindingDB Reactant_set_id>
50103574

> <Ligand InChI>
InChI=1S/C21H20FN5O2/c1-12-15-9-14(22)5-6-18(15)28-7-3-4-16-20(17(10-23)27(2)26-16)13-8-19(29-12)21(24)25-11-13/h5-6,8-9,11-12H,3-4,7H2,1-2H3,(H2,24,25)/t12-/m1/s1

> <Ligand InChI Key>
HSBYECUDEOYBCG-GFCCVEGCSA-N

> <BindingDB MonomerID>
50018829

> <BindingDB Ligand Name>
CHEMBL3286819

> <Target Name>
ALK tyrosine kinase receptor

> <Target Source Organism According to Curator or DataSource>
Homo sapiens

> <Ki (nM)>


> <IC50 (nM)>
 21

> <Kd (nM)>


> <EC50 (nM)>


> <kon (M-1-s-1)>


> <koff (s-1)>


> <pH>


> <Temp C>


> <Curation/DataSource>
ChEMBL

> <Article DOI>
10.1021/jm500261q

> <BindingDB Entry DOI>
10.7270/Q2K35W68

> <PMID>
24819116

> <PubChem AID>


> <Patent Number>


> <Authors>
Johnson, TW; Richardson, PF; Bailey, S; Brooun, A; Burke, BJ; Collins, MR; Cui, JJ; Deal, JG; Deng, YL; Dinh, D; Engstrom, LD; He, M; Hoffman, J; Hoffman, RL; Huang, Q; Kania, RS; Kath, JC; Lam, H; Lam, JL; Le, PT; Lingardo, L; Liu, W; McTigue, M; Palmer, CL; Sach, NW; Smeal, T; Smith, GL; Stewart, AE; Timofeevski, S; Zhu, H; Zhu, J; Zou, HY; Edwards, MP

> <Date of publication>
6/12/2014

> <Date in BindingDB>
2/11/2015

> <Institution>
Pfizer Inc

> <Link to Ligand in BindingDB>
http://www.bindingdb.org/bind/chemsearch/marvin/MolStructure.jsp?monomerid=50018829

> <Link to Ligand-Target Pair in BindingDB>
http://www.bindingdb.org/jsp/dbsearch/PrimarySearch_ki.jsp?energyterm=kJ/mole&tag=pol&polymerid=5809&target=ALK+tyrosine+kinase+receptor&column=ki&startPg=0&Increment=50&submit=Search

> <Link to Ligand-Target Pair in BindingDB>
http://www.bindingdb.org/jsp/dbsearch/PrimarySearch_ki.jsp?energyterm=kJ/mole&tag=r21&monomerid=50018829&enzyme=ALK+tyrosine+kinase+receptor&column=ki&startPg=0&Increment=50&submit=Search

> <Ligand HET ID in PDB>


> <PDB ID(s) for Ligand-Target Complex>


> <PubChem CID of Ligand>
90644197

> <PubChem SID of Ligand>
103929882

> <ChEBI ID of Ligand>


> <ChEMBL ID of Ligand>
CHEMBL3286819

> <DrugBank ID of Ligand>


> <IUPHAR_GRAC ID of Ligand>


> <KEGG ID of Ligand>


> <ZINC ID of Ligand>
ZINC33891501

> <Number of Protein Chains in Target (bigger than 1 implies a multichain complex)>
1

> <BindingDB Target Chain Sequence>
MGAIGLLWLLPLLLSTAAVGSGMGTGQRAGSPAAGPPLQPREPLSYSRLQRKSLAVDFVVPSLFRVYARDLLLPPSSSELKAGRPEARGSLALDCAPLLRLLGPAPGVSWTAGSPAPAEARTLSRVLKGGSVRKLRRAKQLVLELGEEAILEGCVGPPGEAAVGLLQFNLSELFSWWIRQGEGRLRIRLMPEKKASEVGREGRLSAAIRASQPRLLFQIFGTGHSSLESPTNMPSPSPDYFTWNLTWIMKDSFPFLSHRSRYGLECSFDFPCELEYSPPLHDLRNQSWSWRRIPSEEASQMDLLDGPGAERSKEMPRGSFLLLNTSADSKHTILSPWMRSSSEHCTLAVSVHRHLQPSGRYIAQLLPHNEAAREILLMPTPGKHGWTVLQGRIGRPDNPFRVALEYISSGNRSLSAVDFFALKNCSEGTSPGSKMALQSSFTCWNGTVLQLGQACDFHQDCAQGEDESQMCRKLPVGFYCNFEDGFCGWTQGTLSPHTPQWQVRTLKDARFQDHQDHALLLSTTDVPASESATVTSATFPAPIKSSPCELRMSWLIRGVLRGNVSLVLVENKTGKEQGRMVWHVAAYEGLSLWQWMVLPLLDVSDRFWLQMVAWWGQGSRAIVAFDNISISLDCYLTISGEDKILQNTAPKSRNLFERNPNKELKPGENSPRQTPIFDPTVHWLFTTCGASGPHGPTQAQCNNAYQNSNLSVEVGSEGPLKGIQIWKVPATDTYSISGYGAAGGKGGKNTMMRSHGVSVLGIFNLEKDDMLYILVGQQGEDACPSTNQLIQKVCIGENNVIEEEIRVNRSVHEWAGGGGGGGGATYVFKMKDGVPVPLIIAAGGGGRAYGAKTDTFHPERLENNSSVLGLNGNSGAAGGGGGWNDNTSLLWAGKSLQEGATGGHSCPQAMKKWGWETRGGFGGGGGGCSSGGGGGGYIGGNAASNNDPEMDGEDGVSFISPLGILYTPALKVMEGHGEVNIKHYLNCSHCEVDECHMDPESHKVICFCDHGTVLAEDGVSCIVSPTPEPHLPLSLILSVVTSALVAALVLAFSGIMIVYRRKHQELQAMQMELQSPEYKLSKLRTSTIMTDYNPNYCFAGKTSSISDLKEVPRKNITLIRGLGHGAFGEVYEGQVSGMPNDPSPLQVAVKTLPEVCSEQDELDFLMEALIISKFNHQNIVRCIGVSLQSLPRFILLELMAGGDLKSFLRETRPRPSQPSSLAMLDLLHVARDIACGCQYLEENHFIHRDIAARNCLLTCPGPGRVAKIGDFGMARDIYRASYYRKGGCAMLPVKWMPPEAFMEGIFTSKTDTWSFGVLLWEIFSLGYMPYPSKSNQEVLEFVTSGGRMDPPKNCPGPVYRIMTQCWQHQPEDRPNFAIILERIEYCTQDPDVINTALPIEYGPLVEEEEKVPVRPKDPEGVPPLLVSQQAKREEERSPAAPPPLPTTSSGKAAKKPTAAEISVRVPRGPAVEGGHVNMAFSQSNPPSELHKVHGSRNKPTSLWNPTYGSWFTEKPTKKNNPIAKKEPHDRGNLGLEGSCTVPPNVATGRLPGASLLLEPSSLTANMKEVPLFRLRHFPCGNVNYGYQQQGLPLEAATAPGAGHYEDTILKSKNSMNQPGP

> <PDB ID(s) of Target Chain>
2XB7,2XBA,3AOX,5FTO,5FTQ,6E0R,6EBW,6EDL,6MX8,7JY4,7JYR,7JYS,7JYT,7LS0,7MZW,7MZY,7N00,7NX3,7NX4,8ARJ

> <UniProt (SwissProt) Recommended Name of Target Chain>
ALK tyrosine kinase receptor

> <UniProt (SwissProt) Entry Name of Target Chain>
ALK_HUMAN

> <UniProt (SwissProt) Primary ID of Target Chain>
Q9UM73

> <UniProt (SwissProt) Secondary ID(s) of Target Chain>
A6P4T4 A6P4V4 Q4ZFX9 Q53QQ6 Q53RZ4 Q59FI3 Q9Y4K6

> <UniProt (SwissProt) Alternative ID(s) of Target Chain>


> <UniProt (TrEMBL) Submitted Name of Target Chain>


> <UniProt (TrEMBL) Entry Name of Target Chain>


> <UniProt (TrEMBL) Primary ID of Target Chain>


> <UniProt (TrEMBL) Secondary ID(s) of Target Chain>


> <UniProt (TrEMBL) Alternative ID(s) of Target Chain>


$$$$

  SciTegic09261414532D

 32 35  0  0  0  0            999 V2000
    9.5141   -4.2540    0.0000 S   0  0
    9.0957   -4.9560    0.0000 O   0  0
    9.9128   -4.9674    0.0000 O   0  0
    4.6404   -3.7483    0.0000 O   0  0
    3.9398   -4.1320    0.0000 C   0  0  1  0  0  0
    3.2542   -3.7153    0.0000 C   0  0
    3.2780   -2.9146    0.0000 C   0  0
    2.5933   -2.4979    0.0000 C   0  0
    1.8917   -2.8817    0.0000 C   0  0
    1.8752   -3.6864    0.0000 C   0  0
    2.5606   -4.0994    0.0000 C   0  0
    3.9839   -2.5331    0.0000 C   0  0
    1.1719   -4.0726    0.0000 F   0  0
    5.3076   -4.1644    0.0000 C   0  0
    6.7149   -4.1988    0.0000 C   0  0
    5.3078   -4.9672    0.0000 C   0  0
    6.0325   -3.7814    0.0000 C   0  0
    6.6958   -5.0003    0.0000 C   0  0
    5.9943   -5.3846    0.0000 N   0  0
    4.6021   -5.3515    0.0000 N   0  0
    4.6798   -2.9615    0.0000 O   0  0
    4.0069   -1.7163    0.0000 N   0  0
    4.7258   -1.3277    0.0000 C   0  0
    3.3110   -1.2879    0.0000 C   0  0
    3.5247   -4.8371    0.0000 C   0  0
    7.4317   -3.0087    0.0000 C   0  0
    7.4181   -3.8145    0.0000 C   0  0
    8.1081   -4.2274    0.0000 C   0  0
    8.8122   -3.8356    0.0000 C   0  0
    8.8219   -3.0267    0.0000 C   0  0
    8.1313   -2.6174    0.0000 C   0  0
   10.2274   -3.8553    0.0000 C   0  0
  2  1  2  0
  1  3  2  0
 14  4  1  0
  4  5  1  0
  5  6  1  0
  6  7  2  0
  7  8  1  0
  8  9  2  0
  9 10  1  0
 10 11  2  0
 11  6  1  0
  7 12  1  0
 10 13  1  0
 16 14  1  0
 14 17  2  0
 17 15  1  0
 15 18  2  0
 18 19  1  0
 16 19  2  0
 16 20  1  0
 15 27  1  0
 12 21  2  0
 12 22  1  0
 22 23  1  0
 22 24  1  0
 23 26  1  0
  5 25  1  6
 26 27  2  0
 27 28  1  0
 28 29  2  0
 29 30  1  0
 30 31  2  0
 31 26  1  0
 29  1  1  0
  1 32  1  0
M  END
> <From>
www.bindingDB.org

> <BindingDB Reactant_set_id>
50103583

> <Ligand InChI>
InChI=1S/C23H22FN3O4S/c1-13-19-9-16(24)5-7-18(19)23(28)27(2)12-14-4-6-17(32(3,29)30)10-20(14)15-8-21(31-13)22(25)26-11-15/h4-11,13H,12H2,1-3H3,(H2,25,26)/t13-/m1/s1

> <Ligand InChI Key>
OMIYERABHRFNAV-CYBMUJFWSA-N

> <BindingDB MonomerID>
50018837

> <BindingDB Ligand Name>
CHEMBL3286827

> <Target Name>
ALK tyrosine kinase receptor

> <Target Source Organism According to Curator or DataSource>
Homo sapiens

> <Ki (nM)>


> <IC50 (nM)>
 21

> <Kd (nM)>


> <EC50 (nM)>


> <kon (M-1-s-1)>


> <koff (s-1)>


> <pH>


> <Temp C>


> <Curation/DataSource>
ChEMBL

> <Article DOI>
10.1021/jm500261q

> <BindingDB Entry DOI>
10.7270/Q2K35W68

> <PMID>
24819116

> <PubChem AID>


> <Patent Number>


> <Authors>
Johnson, TW; Richardson, PF; Bailey, S; Brooun, A; Burke, BJ; Collins, MR; Cui, JJ; Deal, JG; Deng, YL; Dinh, D; Engstrom, LD; He, M; Hoffman, J; Hoffman, RL; Huang, Q; Kania, RS; Kath, JC; Lam, H; Lam, JL; Le, PT; Lingardo, L; Liu, W; McTigue, M; Palmer, CL; Sach, NW; Smeal, T; Smith, GL; Stewart, AE; Timofeevski, S; Zhu, H; Zhu, J; Zou, HY; Edwards, MP

> <Date of publication>
6/12/2014

> <Date in BindingDB>
2/11/2015

> <Institution>
Pfizer Inc

> <Link to Ligand in BindingDB>
http://www.bindingdb.org/bind/chemsearch/marvin/MolStructure.jsp?monomerid=50018837

> <Link to Ligand-Target Pair in BindingDB>
http://www.bindingdb.org/jsp/dbsearch/PrimarySearch_ki.jsp?energyterm=kJ/mole&tag=pol&polymerid=5809&target=ALK+tyrosine+kinase+receptor&column=ki&startPg=0&Increment=50&submit=Search

> <Link to Ligand-Target Pair in BindingDB>
http://www.bindingdb.org/jsp/dbsearch/PrimarySearch_ki.jsp?energyterm=kJ/mole&tag=r21&monomerid=50018837&enzyme=ALK+tyrosine+kinase+receptor&column=ki&startPg=0&Increment=50&submit=Search

> <Ligand HET ID in PDB>


> <PDB ID(s) for Ligand-Target Complex>


> <PubChem CID of Ligand>
89808124

> <PubChem SID of Ligand>
103929890

> <ChEBI ID of Ligand>


> <ChEMBL ID of Ligand>
CHEMBL3286827

> <DrugBank ID of Ligand>


> <IUPHAR_GRAC ID of Ligand>


> <KEGG ID of Ligand>


> <ZINC ID of Ligand>
ZINC33891497

> <Number of Protein Chains in Target (bigger than 1 implies a multichain complex)>
1

> <BindingDB Target Chain Sequence>
MGAIGLLWLLPLLLSTAAVGSGMGTGQRAGSPAAGPPLQPREPLSYSRLQRKSLAVDFVVPSLFRVYARDLLLPPSSSELKAGRPEARGSLALDCAPLLRLLGPAPGVSWTAGSPAPAEARTLSRVLKGGSVRKLRRAKQLVLELGEEAILEGCVGPPGEAAVGLLQFNLSELFSWWIRQGEGRLRIRLMPEKKASEVGREGRLSAAIRASQPRLLFQIFGTGHSSLESPTNMPSPSPDYFTWNLTWIMKDSFPFLSHRSRYGLECSFDFPCELEYSPPLHDLRNQSWSWRRIPSEEASQMDLLDGPGAERSKEMPRGSFLLLNTSADSKHTILSPWMRSSSEHCTLAVSVHRHLQPSGRYIAQLLPHNEAAREILLMPTPGKHGWTVLQGRIGRPDNPFRVALEYISSGNRSLSAVDFFALKNCSEGTSPGSKMALQSSFTCWNGTVLQLGQACDFHQDCAQGEDESQMCRKLPVGFYCNFEDGFCGWTQGTLSPHTPQWQVRTLKDARFQDHQDHALLLSTTDVPASESATVTSATFPAPIKSSPCELRMSWLIRGVLRGNVSLVLVENKTGKEQGRMVWHVAAYEGLSLWQWMVLPLLDVSDRFWLQMVAWWGQGSRAIVAFDNISISLDCYLTISGEDKILQNTAPKSRNLFERNPNKELKPGENSPRQTPIFDPTVHWLFTTCGASGPHGPTQAQCNNAYQNSNLSVEVGSEGPLKGIQIWKVPATDTYSISGYGAAGGKGGKNTMMRSHGVSVLGIFNLEKDDMLYILVGQQGEDACPSTNQLIQKVCIGENNVIEEEIRVNRSVHEWAGGGGGGGGATYVFKMKDGVPVPLIIAAGGGGRAYGAKTDTFHPERLENNSSVLGLNGNSGAAGGGGGWNDNTSLLWAGKSLQEGATGGHSCPQAMKKWGWETRGGFGGGGGGCSSGGGGGGYIGGNAASNNDPEMDGEDGVSFISPLGILYTPALKVMEGHGEVNIKHYLNCSHCEVDECHMDPESHKVICFCDHGTVLAEDGVSCIVSPTPEPHLPLSLILSVVTSALVAALVLAFSGIMIVYRRKHQELQAMQMELQSPEYKLSKLRTSTIMTDYNPNYCFAGKTSSISDLKEVPRKNITLIRGLGHGAFGEVYEGQVSGMPNDPSPLQVAVKTLPEVCSEQDELDFLMEALIISKFNHQNIVRCIGVSLQSLPRFILLELMAGGDLKSFLRETRPRPSQPSSLAMLDLLHVARDIACGCQYLEENHFIHRDIAARNCLLTCPGPGRVAKIGDFGMARDIYRASYYRKGGCAMLPVKWMPPEAFMEGIFTSKTDTWSFGVLLWEIFSLGYMPYPSKSNQEVLEFVTSGGRMDPPKNCPGPVYRIMTQCWQHQPEDRPNFAIILERIEYCTQDPDVINTALPIEYGPLVEEEEKVPVRPKDPEGVPPLLVSQQAKREEERSPAAPPPLPTTSSGKAAKKPTAAEISVRVPRGPAVEGGHVNMAFSQSNPPSELHKVHGSRNKPTSLWNPTYGSWFTEKPTKKNNPIAKKEPHDRGNLGLEGSCTVPPNVATGRLPGASLLLEPSSLTANMKEVPLFRLRHFPCGNVNYGYQQQGLPLEAATAPGAGHYEDTILKSKNSMNQPGP

> <PDB ID(s) of Target Chain>
2XB7,2XBA,3AOX,5FTO,5FTQ,6E0R,6EBW,6EDL,6MX8,7JY4,7JYR,7JYS,7JYT,7LS0,7MZW,7MZY,7N00,7NX3,7NX4,8ARJ

> <UniProt (SwissProt) Recommended Name of Target Chain>
ALK tyrosine kinase receptor

> <UniProt (SwissProt) Entry Name of Target Chain>
ALK_HUMAN

> <UniProt (SwissProt) Primary ID of Target Chain>
Q9UM73

> <UniProt (SwissProt) Secondary ID(s) of Target Chain>
A6P4T4 A6P4V4 Q4ZFX9 Q53QQ6 Q53RZ4 Q59FI3 Q9Y4K6

> <UniProt (SwissProt) Alternative ID(s) of Target Chain>


> <UniProt (TrEMBL) Submitted Name of Target Chain>


> <UniProt (TrEMBL) Entry Name of Target Chain>


> <UniProt (TrEMBL) Primary ID of Target Chain>


> <UniProt (TrEMBL) Secondary ID(s) of Target Chain>


> <UniProt (TrEMBL) Alternative ID(s) of Target Chain>


$$$$

  SciTegic09261414532D

 30 33  0  0  0  0            999 V2000
   15.5386   -5.1488    0.0000 O   0  0
   14.8183   -5.5433    0.0000 C   0  0  1  0  0  0
   14.1133   -5.1148    0.0000 C   0  0
   14.1378   -4.2915    0.0000 C   0  0
   13.4336   -3.8630    0.0000 C   0  0
   12.7123   -4.2576    0.0000 C   0  0
   12.6952   -5.0851    0.0000 C   0  0
   13.4001   -5.5098    0.0000 C   0  0
   14.8637   -3.8992    0.0000 C   0  0
   11.9721   -5.4822    0.0000 F   0  0
   18.4105   -4.3883    0.0000 C   0  0
   16.2248   -5.5766    0.0000 C   0  0
   17.6719   -5.6120    0.0000 C   0  0
   16.2249   -6.4022    0.0000 C   0  0
   16.9702   -5.1828    0.0000 C   0  0
   17.6523   -6.4363    0.0000 C   0  0
   16.9309   -6.8314    0.0000 N   0  0
   15.4994   -6.7973    0.0000 N   0  0
   18.3950   -5.2168    0.0000 C   0  0
   19.1710   -5.4856    0.0000 C   0  0
   19.6711   -4.8299    0.0000 N   0  0
   19.2011   -4.1567    0.0000 N   0  0
   14.3999   -6.2556    0.0000 C   0  0
   15.5793   -4.3397    0.0000 O   0  0
   14.8873   -3.0593    0.0000 N   0  0
   15.6266   -2.6597    0.0000 C   0  0
   14.1716   -2.6188    0.0000 C   0  0
   20.5114   -4.8476    0.0000 C   0  0
   19.4137   -6.2884    0.0000 C   0  0
   19.6562   -7.0930    0.0000 N   0  0
 12  1  1  0
  1  2  1  0
  2  3  1  0
  3  4  2  0
  4  5  1  0
  5  6  2  0
  6  7  1  0
  7  8  2  0
  8  3  1  0
  4  9  1  0
  7 10  1  0
 14 12  1  0
 12 15  2  0
 15 13  1  0
 13 16  2  0
 16 17  1  0
 14 17  2  0
 14 18  1  0
 13 19  1  0
 11 19  1  0
 19 20  2  0
 20 21  1  0
 21 22  1  0
 22 11  2  0
  2 23  1  6
  9 24  2  0
  9 25  1  0
 25 26  1  0
 25 27  1  0
 26 11  1  0
 21 28  1  0
 29 30  3  0
 20 29  1  0
M  END
> <From>
www.bindingDB.org

> <BindingDB Reactant_set_id>
50103592

> <Ligand InChI>
InChI=1S/C21H19FN6O2/c1-11-15-7-13(22)4-5-14(15)21(29)27(2)10-16-19(17(8-23)28(3)26-16)12-6-18(30-11)20(24)25-9-12/h4-7,9,11H,10H2,1-3H3,(H2,24,25)/t11-/m1/s1

> <Ligand InChI Key>
IIXWYSCJSQVBQM-LLVKDONJSA-N

> <BindingDB MonomerID>
50018830

> <BindingDB Ligand Name>
CHEMBL3286830::US10543199, Compound PF-06463922::US10780082, Compound PF-06463922::US11517561, Compound PF-06463922

> <Target Name>
ALK tyrosine kinase receptor

> <Target Source Organism According to Curator or DataSource>
Homo sapiens

> <Ki (nM)>


> <IC50 (nM)>
 21

> <Kd (nM)>


> <EC50 (nM)>


> <kon (M-1-s-1)>


> <koff (s-1)>


> <pH>


> <Temp C>


> <Curation/DataSource>
ChEMBL

> <Article DOI>
10.1021/jm500261q

> <BindingDB Entry DOI>
10.7270/Q2K35W68

> <PMID>
24819116

> <PubChem AID>


> <Patent Number>


> <Authors>
Johnson, TW; Richardson, PF; Bailey, S; Brooun, A; Burke, BJ; Collins, MR; Cui, JJ; Deal, JG; Deng, YL; Dinh, D; Engstrom, LD; He, M; Hoffman, J; Hoffman, RL; Huang, Q; Kania, RS; Kath, JC; Lam, H; Lam, JL; Le, PT; Lingardo, L; Liu, W; McTigue, M; Palmer, CL; Sach, NW; Smeal, T; Smith, GL; Stewart, AE; Timofeevski, S; Zhu, H; Zhu, J; Zou, HY; Edwards, MP

> <Date of publication>
6/12/2014

> <Date in BindingDB>
2/11/2015

> <Institution>
Pfizer Inc

> <Link to Ligand in BindingDB>
http://www.bindingdb.org/bind/chemsearch/marvin/MolStructure.jsp?monomerid=50018830

> <Link to Ligand-Target Pair in BindingDB>
http://www.bindingdb.org/jsp/dbsearch/PrimarySearch_ki.jsp?energyterm=kJ/mole&tag=pol&polymerid=5809&target=ALK+tyrosine+kinase+receptor&column=ki&startPg=0&Increment=50&submit=Search

> <Link to Ligand-Target Pair in BindingDB>
http://www.bindingdb.org/jsp/dbsearch/PrimarySearch_ki.jsp?energyterm=kJ/mole&tag=r21&monomerid=50018830&enzyme=ALK+tyrosine+kinase+receptor&column=ki&startPg=0&Increment=50&submit=Search

> <Ligand HET ID in PDB>
53P

> <PDB ID(s) for Ligand-Target Complex>


> <PubChem CID of Ligand>
71731823

> <PubChem SID of Ligand>
103929883

> <ChEBI ID of Ligand>


> <ChEMBL ID of Ligand>
CHEMBL3286830

> <DrugBank ID of Ligand>


> <IUPHAR_GRAC ID of Ligand>


> <KEGG ID of Ligand>


> <ZINC ID of Ligand>
ZINC33891516

> <Number of Protein Chains in Target (bigger than 1 implies a multichain complex)>
1

> <BindingDB Target Chain Sequence>
MGAIGLLWLLPLLLSTAAVGSGMGTGQRAGSPAAGPPLQPREPLSYSRLQRKSLAVDFVVPSLFRVYARDLLLPPSSSELKAGRPEARGSLALDCAPLLRLLGPAPGVSWTAGSPAPAEARTLSRVLKGGSVRKLRRAKQLVLELGEEAILEGCVGPPGEAAVGLLQFNLSELFSWWIRQGEGRLRIRLMPEKKASEVGREGRLSAAIRASQPRLLFQIFGTGHSSLESPTNMPSPSPDYFTWNLTWIMKDSFPFLSHRSRYGLECSFDFPCELEYSPPLHDLRNQSWSWRRIPSEEASQMDLLDGPGAERSKEMPRGSFLLLNTSADSKHTILSPWMRSSSEHCTLAVSVHRHLQPSGRYIAQLLPHNEAAREILLMPTPGKHGWTVLQGRIGRPDNPFRVALEYISSGNRSLSAVDFFALKNCSEGTSPGSKMALQSSFTCWNGTVLQLGQACDFHQDCAQGEDESQMCRKLPVGFYCNFEDGFCGWTQGTLSPHTPQWQVRTLKDARFQDHQDHALLLSTTDVPASESATVTSATFPAPIKSSPCELRMSWLIRGVLRGNVSLVLVENKTGKEQGRMVWHVAAYEGLSLWQWMVLPLLDVSDRFWLQMVAWWGQGSRAIVAFDNISISLDCYLTISGEDKILQNTAPKSRNLFERNPNKELKPGENSPRQTPIFDPTVHWLFTTCGASGPHGPTQAQCNNAYQNSNLSVEVGSEGPLKGIQIWKVPATDTYSISGYGAAGGKGGKNTMMRSHGVSVLGIFNLEKDDMLYILVGQQGEDACPSTNQLIQKVCIGENNVIEEEIRVNRSVHEWAGGGGGGGGATYVFKMKDGVPVPLIIAAGGGGRAYGAKTDTFHPERLENNSSVLGLNGNSGAAGGGGGWNDNTSLLWAGKSLQEGATGGHSCPQAMKKWGWETRGGFGGGGGGCSSGGGGGGYIGGNAASNNDPEMDGEDGVSFISPLGILYTPALKVMEGHGEVNIKHYLNCSHCEVDECHMDPESHKVICFCDHGTVLAEDGVSCIVSPTPEPHLPLSLILSVVTSALVAALVLAFSGIMIVYRRKHQELQAMQMELQSPEYKLSKLRTSTIMTDYNPNYCFAGKTSSISDLKEVPRKNITLIRGLGHGAFGEVYEGQVSGMPNDPSPLQVAVKTLPEVCSEQDELDFLMEALIISKFNHQNIVRCIGVSLQSLPRFILLELMAGGDLKSFLRETRPRPSQPSSLAMLDLLHVARDIACGCQYLEENHFIHRDIAARNCLLTCPGPGRVAKIGDFGMARDIYRASYYRKGGCAMLPVKWMPPEAFMEGIFTSKTDTWSFGVLLWEIFSLGYMPYPSKSNQEVLEFVTSGGRMDPPKNCPGPVYRIMTQCWQHQPEDRPNFAIILERIEYCTQDPDVINTALPIEYGPLVEEEEKVPVRPKDPEGVPPLLVSQQAKREEERSPAAPPPLPTTSSGKAAKKPTAAEISVRVPRGPAVEGGHVNMAFSQSNPPSELHKVHGSRNKPTSLWNPTYGSWFTEKPTKKNNPIAKKEPHDRGNLGLEGSCTVPPNVATGRLPGASLLLEPSSLTANMKEVPLFRLRHFPCGNVNYGYQQQGLPLEAATAPGAGHYEDTILKSKNSMNQPGP

> <PDB ID(s) of Target Chain>
2XB7,2XBA,3AOX,5FTO,5FTQ,6E0R,6EBW,6EDL,6MX8,7JY4,7JYR,7JYS,7JYT,7LS0,7MZW,7MZY,7N00,7NX3,7NX4,8ARJ

> <UniProt (SwissProt) Recommended Name of Target Chain>
ALK tyrosine kinase receptor

> <UniProt (SwissProt) Entry Name of Target Chain>
ALK_HUMAN

> <UniProt (SwissProt) Primary ID of Target Chain>
Q9UM73

> <UniProt (SwissProt) Secondary ID(s) of Target Chain>
A6P4T4 A6P4V4 Q4ZFX9 Q53QQ6 Q53RZ4 Q59FI3 Q9Y4K6

> <UniProt (SwissProt) Alternative ID(s) of Target Chain>


> <UniProt (TrEMBL) Submitted Name of Target Chain>


> <UniProt (TrEMBL) Entry Name of Target Chain>


> <UniProt (TrEMBL) Primary ID of Target Chain>


> <UniProt (TrEMBL) Secondary ID(s) of Target Chain>


> <UniProt (TrEMBL) Alternative ID(s) of Target Chain>


$$$$

  SciTegic09261414532D

 26 29  0  0  0  0            999 V2000
    5.3241   -4.5702    0.0000 C   0  0
    3.8880   -5.3552    0.0000 C   0  0
    3.9071   -4.5371    0.0000 C   0  0
    4.6251   -4.1446    0.0000 C   0  0
    5.3049   -5.3883    0.0000 C   0  0
    4.5869   -5.7808    0.0000 N   0  0
    3.1700   -5.7477    0.0000 N   0  0
    3.2082   -4.1115    0.0000 O   0  0
    3.2276   -3.2932    0.0000 C   0  0
    2.5248   -2.8739    0.0000 C   0  0
    1.8104   -3.2728    0.0000 C   0  0
    1.1077   -2.8536    0.0000 C   0  0
    1.1194   -2.0354    0.0000 C   0  0
    1.8339   -1.6364    0.0000 C   0  0
    2.5366   -2.0557    0.0000 C   0  0
    0.3932   -3.2525    0.0000 F   0  0
    6.0578   -3.3611    0.0000 C   0  0
    6.0396   -4.1777    0.0000 C   0  0
    6.8107   -4.4473    0.0000 C   0  0
    7.3054   -3.7973    0.0000 N   0  0
    6.8400   -3.1260    0.0000 N   0  0
    3.2501   -1.6573    0.0000 O   0  0
    3.9519   -2.0760    0.0000 C   0  0
    4.6654   -1.6776    0.0000 C   0  0
    7.0465   -5.2289    0.0000 C   0  0
    7.2817   -6.0116    0.0000 N   0  0
  2  3  1  0
  3  4  2  0
  4  1  1  0
  1  5  2  0
  5  6  1  0
  2  6  2  0
  2  7  1  0
  8  9  1  0
 10 11  1  0
 11 12  2  0
 12 13  1  0
 13 14  2  0
 14 15  1  0
 10 15  2  0
 12 16  1  0
  9 10  1  0
  3  8  1  0
  1 18  1  0
 17 18  1  0
 18 19  2  0
 19 20  1  0
 20 21  1  0
 21 17  2  0
 15 22  1  0
 22 23  1  0
 23 24  1  0
 24 17  1  0
 25 26  3  0
 19 25  1  0
M  END
> <From>
www.bindingDB.org

> <BindingDB Reactant_set_id>
50103687

> <Ligand InChI>
InChI=1S/C18H14FN5O2/c19-12-1-2-15-11(5-12)9-26-16-6-10(8-22-18(16)21)17-13(3-4-25-15)23-24-14(17)7-20/h1-2,5-6,8H,3-4,9H2,(H2,21,22)(H,23,24)

> <Ligand InChI Key>
JPFKGTKMTHTBAD-UHFFFAOYSA-N

> <BindingDB MonomerID>
50018824

> <BindingDB Ligand Name>
CHEMBL3286814

> <Target Name>
ALK tyrosine kinase receptor

> <Target Source Organism According to Curator or DataSource>
Homo sapiens

> <Ki (nM)>


> <IC50 (nM)>
 22

> <Kd (nM)>


> <EC50 (nM)>


> <kon (M-1-s-1)>


> <koff (s-1)>


> <pH>


> <Temp C>


> <Curation/DataSource>
ChEMBL

> <Article DOI>
10.1021/jm500261q

> <BindingDB Entry DOI>
10.7270/Q2K35W68

> <PMID>
24819116

> <PubChem AID>


> <Patent Number>


> <Authors>
Johnson, TW; Richardson, PF; Bailey, S; Brooun, A; Burke, BJ; Collins, MR; Cui, JJ; Deal, JG; Deng, YL; Dinh, D; Engstrom, LD; He, M; Hoffman, J; Hoffman, RL; Huang, Q; Kania, RS; Kath, JC; Lam, H; Lam, JL; Le, PT; Lingardo, L; Liu, W; McTigue, M; Palmer, CL; Sach, NW; Smeal, T; Smith, GL; Stewart, AE; Timofeevski, S; Zhu, H; Zhu, J; Zou, HY; Edwards, MP

> <Date of publication>
6/12/2014

> <Date in BindingDB>
2/11/2015

> <Institution>
Pfizer Inc

> <Link to Ligand in BindingDB>
http://www.bindingdb.org/bind/chemsearch/marvin/MolStructure.jsp?monomerid=50018824

> <Link to Ligand-Target Pair in BindingDB>
http://www.bindingdb.org/jsp/dbsearch/PrimarySearch_ki.jsp?energyterm=kJ/mole&tag=pol&polymerid=5809&target=ALK+tyrosine+kinase+receptor&column=ki&startPg=0&Increment=50&submit=Search

> <Link to Ligand-Target Pair in BindingDB>
http://www.bindingdb.org/jsp/dbsearch/PrimarySearch_ki.jsp?energyterm=kJ/mole&tag=r21&monomerid=50018824&enzyme=ALK+tyrosine+kinase+receptor&column=ki&startPg=0&Increment=50&submit=Search

> <Ligand HET ID in PDB>


> <PDB ID(s) for Ligand-Target Complex>


> <PubChem CID of Ligand>
71732095

> <PubChem SID of Ligand>
103929877

> <ChEBI ID of Ligand>


> <ChEMBL ID of Ligand>
CHEMBL3286814

> <DrugBank ID of Ligand>


> <IUPHAR_GRAC ID of Ligand>


> <KEGG ID of Ligand>


> <ZINC ID of Ligand>
ZINC33891530

> <Number of Protein Chains in Target (bigger than 1 implies a multichain complex)>
1

> <BindingDB Target Chain Sequence>
MGAIGLLWLLPLLLSTAAVGSGMGTGQRAGSPAAGPPLQPREPLSYSRLQRKSLAVDFVVPSLFRVYARDLLLPPSSSELKAGRPEARGSLALDCAPLLRLLGPAPGVSWTAGSPAPAEARTLSRVLKGGSVRKLRRAKQLVLELGEEAILEGCVGPPGEAAVGLLQFNLSELFSWWIRQGEGRLRIRLMPEKKASEVGREGRLSAAIRASQPRLLFQIFGTGHSSLESPTNMPSPSPDYFTWNLTWIMKDSFPFLSHRSRYGLECSFDFPCELEYSPPLHDLRNQSWSWRRIPSEEASQMDLLDGPGAERSKEMPRGSFLLLNTSADSKHTILSPWMRSSSEHCTLAVSVHRHLQPSGRYIAQLLPHNEAAREILLMPTPGKHGWTVLQGRIGRPDNPFRVALEYISSGNRSLSAVDFFALKNCSEGTSPGSKMALQSSFTCWNGTVLQLGQACDFHQDCAQGEDESQMCRKLPVGFYCNFEDGFCGWTQGTLSPHTPQWQVRTLKDARFQDHQDHALLLSTTDVPASESATVTSATFPAPIKSSPCELRMSWLIRGVLRGNVSLVLVENKTGKEQGRMVWHVAAYEGLSLWQWMVLPLLDVSDRFWLQMVAWWGQGSRAIVAFDNISISLDCYLTISGEDKILQNTAPKSRNLFERNPNKELKPGENSPRQTPIFDPTVHWLFTTCGASGPHGPTQAQCNNAYQNSNLSVEVGSEGPLKGIQIWKVPATDTYSISGYGAAGGKGGKNTMMRSHGVSVLGIFNLEKDDMLYILVGQQGEDACPSTNQLIQKVCIGENNVIEEEIRVNRSVHEWAGGGGGGGGATYVFKMKDGVPVPLIIAAGGGGRAYGAKTDTFHPERLENNSSVLGLNGNSGAAGGGGGWNDNTSLLWAGKSLQEGATGGHSCPQAMKKWGWETRGGFGGGGGGCSSGGGGGGYIGGNAASNNDPEMDGEDGVSFISPLGILYTPALKVMEGHGEVNIKHYLNCSHCEVDECHMDPESHKVICFCDHGTVLAEDGVSCIVSPTPEPHLPLSLILSVVTSALVAALVLAFSGIMIVYRRKHQELQAMQMELQSPEYKLSKLRTSTIMTDYNPNYCFAGKTSSISDLKEVPRKNITLIRGLGHGAFGEVYEGQVSGMPNDPSPLQVAVKTLPEVCSEQDELDFLMEALIISKFNHQNIVRCIGVSLQSLPRFILLELMAGGDLKSFLRETRPRPSQPSSLAMLDLLHVARDIACGCQYLEENHFIHRDIAARNCLLTCPGPGRVAKIGDFGMARDIYRASYYRKGGCAMLPVKWMPPEAFMEGIFTSKTDTWSFGVLLWEIFSLGYMPYPSKSNQEVLEFVTSGGRMDPPKNCPGPVYRIMTQCWQHQPEDRPNFAIILERIEYCTQDPDVINTALPIEYGPLVEEEEKVPVRPKDPEGVPPLLVSQQAKREEERSPAAPPPLPTTSSGKAAKKPTAAEISVRVPRGPAVEGGHVNMAFSQSNPPSELHKVHGSRNKPTSLWNPTYGSWFTEKPTKKNNPIAKKEPHDRGNLGLEGSCTVPPNVATGRLPGASLLLEPSSLTANMKEVPLFRLRHFPCGNVNYGYQQQGLPLEAATAPGAGHYEDTILKSKNSMNQPGP

> <PDB ID(s) of Target Chain>
2XB7,2XBA,3AOX,5FTO,5FTQ,6E0R,6EBW,6EDL,6MX8,7JY4,7JYR,7JYS,7JYT,7LS0,7MZW,7MZY,7N00,7NX3,7NX4,8ARJ

> <UniProt (SwissProt) Recommended Name of Target Chain>
ALK tyrosine kinase receptor

> <UniProt (SwissProt) Entry Name of Target Chain>
ALK_HUMAN

> <UniProt (SwissProt) Primary ID of Target Chain>
Q9UM73

> <UniProt (SwissProt) Secondary ID(s) of Target Chain>
A6P4T4 A6P4V4 Q4ZFX9 Q53QQ6 Q53RZ4 Q59FI3 Q9Y4K6

> <UniProt (SwissProt) Alternative ID(s) of Target Chain>


> <UniProt (TrEMBL) Submitted Name of Target Chain>


> <UniProt (TrEMBL) Entry Name of Target Chain>


> <UniProt (TrEMBL) Primary ID of Target Chain>


> <UniProt (TrEMBL) Secondary ID(s) of Target Chain>


> <UniProt (TrEMBL) Alternative ID(s) of Target Chain>


$$$$

  SciTegic09261414532D

 30 33  0  0  0  0            999 V2000
   15.5386   -5.1488    0.0000 O   0  0
   14.8183   -5.5433    0.0000 C   0  0  1  0  0  0
   14.1133   -5.1148    0.0000 C   0  0
   14.1378   -4.2915    0.0000 C   0  0
   13.4336   -3.8630    0.0000 C   0  0
   12.7123   -4.2576    0.0000 C   0  0
   12.6952   -5.0851    0.0000 C   0  0
   13.4001   -5.5098    0.0000 C   0  0
   14.8637   -3.8992    0.0000 C   0  0
   11.9721   -5.4822    0.0000 F   0  0
   18.4105   -4.3883    0.0000 C   0  0
   16.2248   -5.5766    0.0000 C   0  0
   17.6719   -5.6120    0.0000 C   0  0
   16.2249   -6.4022    0.0000 C   0  0
   16.9702   -5.1828    0.0000 C   0  0
   17.6523   -6.4363    0.0000 C   0  0
   16.9309   -6.8314    0.0000 N   0  0
   15.4994   -6.7973    0.0000 N   0  0
   18.3950   -5.2168    0.0000 C   0  0
   19.1710   -5.4856    0.0000 C   0  0
   19.6711   -4.8299    0.0000 N   0  0
   19.2011   -4.1567    0.0000 N   0  0
   14.3999   -6.2556    0.0000 C   0  0
   15.5793   -4.3397    0.0000 O   0  0
   14.8873   -3.0593    0.0000 N   0  0
   15.6266   -2.6597    0.0000 C   0  0
   14.1716   -2.6188    0.0000 C   0  0
   20.5114   -4.8476    0.0000 C   0  0
   19.4137   -6.2884    0.0000 C   0  0
   19.6562   -7.0930    0.0000 N   0  0
 12  1  1  0
  1  2  1  0
  2  3  1  0
  3  4  2  0
  4  5  1  0
  5  6  2  0
  6  7  1  0
  7  8  2  0
  8  3  1  0
  4  9  1  0
  7 10  1  0
 14 12  1  0
 12 15  2  0
 15 13  1  0
 13 16  2  0
 16 17  1  0
 14 17  2  0
 14 18  1  0
 13 19  1  0
 11 19  1  0
 19 20  2  0
 20 21  1  0
 21 22  1  0
 22 11  2  0
  2 23  1  6
  9 24  2  0
  9 25  1  0
 25 26  1  0
 25 27  1  0
 26 11  1  0
 21 28  1  0
 29 30  3  0
 20 29  1  0
M  END
> <From>
www.bindingDB.org

> <BindingDB Reactant_set_id>
50103643

> <Ligand InChI>
InChI=1S/C21H19FN6O2/c1-11-15-7-13(22)4-5-14(15)21(29)27(2)10-16-19(17(8-23)28(3)26-16)12-6-18(30-11)20(24)25-9-12/h4-7,9,11H,10H2,1-3H3,(H2,24,25)/t11-/m1/s1

> <Ligand InChI Key>
IIXWYSCJSQVBQM-LLVKDONJSA-N

> <BindingDB MonomerID>
50018830

> <BindingDB Ligand Name>
CHEMBL3286830::US10543199, Compound PF-06463922::US10780082, Compound PF-06463922::US11517561, Compound PF-06463922

> <Target Name>
High affinity nerve growth factor receptor

> <Target Source Organism According to Curator or DataSource>
Human

> <Ki (nM)>


> <IC50 (nM)>
 24

> <Kd (nM)>


> <EC50 (nM)>


> <kon (M-1-s-1)>


> <koff (s-1)>


> <pH>


> <Temp C>


> <Curation/DataSource>
ChEMBL

> <Article DOI>
10.1021/jm500261q

> <BindingDB Entry DOI>
10.7270/Q2K35W68

> <PMID>
24819116

> <PubChem AID>


> <Patent Number>


> <Authors>
Johnson, TW; Richardson, PF; Bailey, S; Brooun, A; Burke, BJ; Collins, MR; Cui, JJ; Deal, JG; Deng, YL; Dinh, D; Engstrom, LD; He, M; Hoffman, J; Hoffman, RL; Huang, Q; Kania, RS; Kath, JC; Lam, H; Lam, JL; Le, PT; Lingardo, L; Liu, W; McTigue, M; Palmer, CL; Sach, NW; Smeal, T; Smith, GL; Stewart, AE; Timofeevski, S; Zhu, H; Zhu, J; Zou, HY; Edwards, MP

> <Date of publication>
6/12/2014

> <Date in BindingDB>
2/11/2015

> <Institution>
Pfizer Inc

> <Link to Ligand in BindingDB>
http://www.bindingdb.org/bind/chemsearch/marvin/MolStructure.jsp?monomerid=50018830

> <Link to Ligand-Target Pair in BindingDB>
http://www.bindingdb.org/jsp/dbsearch/PrimarySearch_ki.jsp?energyterm=kJ/mole&tag=pol&polymerid=3688&target=High+affinity+nerve+growth+factor+receptor&column=ki&startPg=0&Increment=50&submit=Search

> <Link to Ligand-Target Pair in BindingDB>
http://www.bindingdb.org/jsp/dbsearch/PrimarySearch_ki.jsp?energyterm=kJ/mole&tag=r21&monomerid=50018830&enzyme=High+affinity+nerve+growth+factor+receptor&column=ki&startPg=0&Increment=50&submit=Search

> <Ligand HET ID in PDB>
53P

> <PDB ID(s) for Ligand-Target Complex>


> <PubChem CID of Ligand>
71731823

> <PubChem SID of Ligand>
103929883

> <ChEBI ID of Ligand>


> <ChEMBL ID of Ligand>
CHEMBL3286830

> <DrugBank ID of Ligand>


> <IUPHAR_GRAC ID of Ligand>


> <KEGG ID of Ligand>


> <ZINC ID of Ligand>
ZINC33891516

> <Number of Protein Chains in Target (bigger than 1 implies a multichain complex)>
1

> <BindingDB Target Chain Sequence>
MLRGGRRGQLGWHSWAAGPGSLLAWLILASAGAAPCPDACCPHGSSGLRCTRDGALDSLHHLPGAENLTELYIENQQHLQHLELRDLRGLGELRNLTIVKSGLRFVAPDAFHFTPRLSRLNLSFNALESLSWKTVQGLSLQELVLSGNPLHCSCALRWLQRWEEEGLGGVPEQKLQCHGQGPLAHMPNASCGVPTLKVQVPNASVDVGDDVLLRCQVEGRGLEQAGWILTELEQSATVMKSGGLPSLGLTLANVTSDLNRKNVTCWAENDVGRAEVSVQVNVSFPASVQLHTAVEMHHWCIPFSVDGQPAPSLRWLFNGSVLNETSFIFTEFLEPAANETVRHGCLRLNQPTHVNNGNYTLLAANPFGQASASIMAAFMDNPFEFNPEDPIPVSFSPVDTNSTSGDPVEKKDETPFGVSVAVGLAVFACLFLSTLLLVLNKCGRRNKFGINRPAVLAPEDGLAMSLHFMTLGGSSLSPTEGKGSGLQGHIIENPQYFSDACVHHIKRRDIVLKWELGEGAFGKVFLAECHNLLPEQDKMLVAVKALKEASESARQDFQREAELLTMLQHQHIVRFFGVCTEGRPLLMVFEYMRHGDLNRFLRSHGPDAKLLAGGEDVAPGPLGLGQLLAVASQVAAGMVYLAGLHFVHRDLATRNCLVGQGLVVKIGDFGMSRDIYSTDYYRVGGRTMLPIRWMPPESILYRKFTTESDVWSFGVVLWEIFTYGKQPWYQLSNTEAIDCITQGRELERPRACPPEVYAIMRGCWQREPQQRHSIKDVHARLQALAQAPPVYLDVLG

> <PDB ID(s) of Target Chain>
1WWA,1WWW,2IFG,4AOJ,4F0I,4PMM,4PMP,4PMS,4PMT,4YNE,4YPS,5H3Q,5I8A,5JFS,5JFV,5JFW,5JFX,5KMI,5KMJ,5KMK,5KML,5KMM,5KMN,5KMO,5KVT,5WR7,6D1Y,6D1Z,6D20,6D22,6DKB,6DKG,6DKI,6DKW,6IQN,6J5L,6NPT,6NSP,6NSS,6PL1,6PL2,6PL3,6PL4,6PMA,6PMB,6PMC,6PME,7VKO,7XAF,7XBI

> <UniProt (SwissProt) Recommended Name of Target Chain>
High affinity nerve growth factor receptor

> <UniProt (SwissProt) Entry Name of Target Chain>
NTRK1_HUMAN

> <UniProt (SwissProt) Primary ID of Target Chain>
P04629

> <UniProt (SwissProt) Secondary ID(s) of Target Chain>
B2R6T5 B7ZM34 P08119 Q15655 Q15656 Q5D056 Q5VZS2 Q7Z5C3 Q9UIU7

> <UniProt (SwissProt) Alternative ID(s) of Target Chain>


> <UniProt (TrEMBL) Submitted Name of Target Chain>


> <UniProt (TrEMBL) Entry Name of Target Chain>


> <UniProt (TrEMBL) Primary ID of Target Chain>


> <UniProt (TrEMBL) Secondary ID(s) of Target Chain>


> <UniProt (TrEMBL) Alternative ID(s) of Target Chain>


$$$$

  SciTegic09261414532D

 30 33  0  0  0  0            999 V2000
   15.5386   -5.1488    0.0000 O   0  0
   14.8183   -5.5433    0.0000 C   0  0  1  0  0  0
   14.1133   -5.1148    0.0000 C   0  0
   14.1378   -4.2915    0.0000 C   0  0
   13.4336   -3.8630    0.0000 C   0  0
   12.7123   -4.2576    0.0000 C   0  0
   12.6952   -5.0851    0.0000 C   0  0
   13.4001   -5.5098    0.0000 C   0  0
   14.8637   -3.8992    0.0000 C   0  0
   11.9721   -5.4822    0.0000 F   0  0
   18.4105   -4.3883    0.0000 C   0  0
   16.2248   -5.5766    0.0000 C   0  0
   17.6719   -5.6120    0.0000 C   0  0
   16.2249   -6.4022    0.0000 C   0  0
   16.9702   -5.1828    0.0000 C   0  0
   17.6523   -6.4363    0.0000 C   0  0
   16.9309   -6.8314    0.0000 N   0  0
   15.4994   -6.7973    0.0000 N   0  0
   18.3950   -5.2168    0.0000 C   0  0
   19.1710   -5.4856    0.0000 C   0  0
   19.6711   -4.8299    0.0000 N   0  0
   19.2011   -4.1567    0.0000 N   0  0
   14.3999   -6.2556    0.0000 C   0  0
   15.5793   -4.3397    0.0000 O   0  0
   14.8873   -3.0593    0.0000 N   0  0
   15.6266   -2.6597    0.0000 C   0  0
   14.1716   -2.6188    0.0000 C   0  0
   20.5114   -4.8476    0.0000 C   0  0
   19.4137   -6.2884    0.0000 C   0  0
   19.6562   -7.0930    0.0000 N   0  0
 12  1  1  0
  1  2  1  0
  2  3  1  0
  3  4  2  0
  4  5  1  0
  5  6  2  0
  6  7  1  0
  7  8  2  0
  8  3  1  0
  4  9  1  0
  7 10  1  0
 14 12  1  0
 12 15  2  0
 15 13  1  0
 13 16  2  0
 16 17  1  0
 14 17  2  0
 14 18  1  0
 13 19  1  0
 11 19  1  0
 19 20  2  0
 20 21  1  0
 21 22  1  0
 22 11  2  0
  2 23  1  6
  9 24  2  0
  9 25  1  0
 25 26  1  0
 25 27  1  0
 26 11  1  0
 21 28  1  0
 29 30  3  0
 20 29  1  0
M  END
> <From>
www.bindingDB.org

> <BindingDB Reactant_set_id>
50103630

> <Ligand InChI>
InChI=1S/C21H19FN6O2/c1-11-15-7-13(22)4-5-14(15)21(29)27(2)10-16-19(17(8-23)28(3)26-16)12-6-18(30-11)20(24)25-9-12/h4-7,9,11H,10H2,1-3H3,(H2,24,25)/t11-/m1/s1

> <Ligand InChI Key>
IIXWYSCJSQVBQM-LLVKDONJSA-N

> <BindingDB MonomerID>
50018830

> <BindingDB Ligand Name>
CHEMBL3286830::US10543199, Compound PF-06463922::US10780082, Compound PF-06463922::US11517561, Compound PF-06463922

> <Target Name>
ALK tyrosine kinase receptor

> <Target Source Organism According to Curator or DataSource>
Homo sapiens

> <Ki (nM)>


> <IC50 (nM)>
 38

> <Kd (nM)>


> <EC50 (nM)>


> <kon (M-1-s-1)>


> <koff (s-1)>


> <pH>


> <Temp C>


> <Curation/DataSource>
ChEMBL

> <Article DOI>
10.1021/jm500261q

> <BindingDB Entry DOI>
10.7270/Q2K35W68

> <PMID>
24819116

> <PubChem AID>


> <Patent Number>


> <Authors>
Johnson, TW; Richardson, PF; Bailey, S; Brooun, A; Burke, BJ; Collins, MR; Cui, JJ; Deal, JG; Deng, YL; Dinh, D; Engstrom, LD; He, M; Hoffman, J; Hoffman, RL; Huang, Q; Kania, RS; Kath, JC; Lam, H; Lam, JL; Le, PT; Lingardo, L; Liu, W; McTigue, M; Palmer, CL; Sach, NW; Smeal, T; Smith, GL; Stewart, AE; Timofeevski, S; Zhu, H; Zhu, J; Zou, HY; Edwards, MP

> <Date of publication>
6/12/2014

> <Date in BindingDB>
2/11/2015

> <Institution>
Pfizer Inc

> <Link to Ligand in BindingDB>
http://www.bindingdb.org/bind/chemsearch/marvin/MolStructure.jsp?monomerid=50018830

> <Link to Ligand-Target Pair in BindingDB>
http://www.bindingdb.org/jsp/dbsearch/PrimarySearch_ki.jsp?energyterm=kJ/mole&tag=pol&polymerid=5809&target=ALK+tyrosine+kinase+receptor&column=ki&startPg=0&Increment=50&submit=Search

> <Link to Ligand-Target Pair in BindingDB>
http://www.bindingdb.org/jsp/dbsearch/PrimarySearch_ki.jsp?energyterm=kJ/mole&tag=r21&monomerid=50018830&enzyme=ALK+tyrosine+kinase+receptor&column=ki&startPg=0&Increment=50&submit=Search

> <Ligand HET ID in PDB>
53P

> <PDB ID(s) for Ligand-Target Complex>


> <PubChem CID of Ligand>
71731823

> <PubChem SID of Ligand>
103929883

> <ChEBI ID of Ligand>


> <ChEMBL ID of Ligand>
CHEMBL3286830

> <DrugBank ID of Ligand>


> <IUPHAR_GRAC ID of Ligand>


> <KEGG ID of Ligand>


> <ZINC ID of Ligand>
ZINC33891516

> <Number of Protein Chains in Target (bigger than 1 implies a multichain complex)>
1

> <BindingDB Target Chain Sequence>
MGAIGLLWLLPLLLSTAAVGSGMGTGQRAGSPAAGPPLQPREPLSYSRLQRKSLAVDFVVPSLFRVYARDLLLPPSSSELKAGRPEARGSLALDCAPLLRLLGPAPGVSWTAGSPAPAEARTLSRVLKGGSVRKLRRAKQLVLELGEEAILEGCVGPPGEAAVGLLQFNLSELFSWWIRQGEGRLRIRLMPEKKASEVGREGRLSAAIRASQPRLLFQIFGTGHSSLESPTNMPSPSPDYFTWNLTWIMKDSFPFLSHRSRYGLECSFDFPCELEYSPPLHDLRNQSWSWRRIPSEEASQMDLLDGPGAERSKEMPRGSFLLLNTSADSKHTILSPWMRSSSEHCTLAVSVHRHLQPSGRYIAQLLPHNEAAREILLMPTPGKHGWTVLQGRIGRPDNPFRVALEYISSGNRSLSAVDFFALKNCSEGTSPGSKMALQSSFTCWNGTVLQLGQACDFHQDCAQGEDESQMCRKLPVGFYCNFEDGFCGWTQGTLSPHTPQWQVRTLKDARFQDHQDHALLLSTTDVPASESATVTSATFPAPIKSSPCELRMSWLIRGVLRGNVSLVLVENKTGKEQGRMVWHVAAYEGLSLWQWMVLPLLDVSDRFWLQMVAWWGQGSRAIVAFDNISISLDCYLTISGEDKILQNTAPKSRNLFERNPNKELKPGENSPRQTPIFDPTVHWLFTTCGASGPHGPTQAQCNNAYQNSNLSVEVGSEGPLKGIQIWKVPATDTYSISGYGAAGGKGGKNTMMRSHGVSVLGIFNLEKDDMLYILVGQQGEDACPSTNQLIQKVCIGENNVIEEEIRVNRSVHEWAGGGGGGGGATYVFKMKDGVPVPLIIAAGGGGRAYGAKTDTFHPERLENNSSVLGLNGNSGAAGGGGGWNDNTSLLWAGKSLQEGATGGHSCPQAMKKWGWETRGGFGGGGGGCSSGGGGGGYIGGNAASNNDPEMDGEDGVSFISPLGILYTPALKVMEGHGEVNIKHYLNCSHCEVDECHMDPESHKVICFCDHGTVLAEDGVSCIVSPTPEPHLPLSLILSVVTSALVAALVLAFSGIMIVYRRKHQELQAMQMELQSPEYKLSKLRTSTIMTDYNPNYCFAGKTSSISDLKEVPRKNITLIRGLGHGAFGEVYEGQVSGMPNDPSPLQVAVKTLPEVCSEQDELDFLMEALIISKFNHQNIVRCIGVSLQSLPRFILLELMAGGDLKSFLRETRPRPSQPSSLAMLDLLHVARDIACGCQYLEENHFIHRDIAARNCLLTCPGPGRVAKIGDFGMARDIYRASYYRKGGCAMLPVKWMPPEAFMEGIFTSKTDTWSFGVLLWEIFSLGYMPYPSKSNQEVLEFVTSGGRMDPPKNCPGPVYRIMTQCWQHQPEDRPNFAIILERIEYCTQDPDVINTALPIEYGPLVEEEEKVPVRPKDPEGVPPLLVSQQAKREEERSPAAPPPLPTTSSGKAAKKPTAAEISVRVPRGPAVEGGHVNMAFSQSNPPSELHKVHGSRNKPTSLWNPTYGSWFTEKPTKKNNPIAKKEPHDRGNLGLEGSCTVPPNVATGRLPGASLLLEPSSLTANMKEVPLFRLRHFPCGNVNYGYQQQGLPLEAATAPGAGHYEDTILKSKNSMNQPGP

> <PDB ID(s) of Target Chain>
2XB7,2XBA,3AOX,5FTO,5FTQ,6E0R,6EBW,6EDL,6MX8,7JY4,7JYR,7JYS,7JYT,7LS0,7MZW,7MZY,7N00,7NX3,7NX4,8ARJ

> <UniProt (SwissProt) Recommended Name of Target Chain>
ALK tyrosine kinase receptor

> <UniProt (SwissProt) Entry Name of Target Chain>
ALK_HUMAN

> <UniProt (SwissProt) Primary ID of Target Chain>
Q9UM73

> <UniProt (SwissProt) Secondary ID(s) of Target Chain>
A6P4T4 A6P4V4 Q4ZFX9 Q53QQ6 Q53RZ4 Q59FI3 Q9Y4K6

> <UniProt (SwissProt) Alternative ID(s) of Target Chain>


> <UniProt (TrEMBL) Submitted Name of Target Chain>


> <UniProt (TrEMBL) Entry Name of Target Chain>


> <UniProt (TrEMBL) Primary ID of Target Chain>


> <UniProt (TrEMBL) Secondary ID(s) of Target Chain>


> <UniProt (TrEMBL) Alternative ID(s) of Target Chain>


$$$$

  SciTegic09261414532D

 33 37  0  0  0  0            999 V2000
   14.8965   -4.5449    0.0000 O   0  0
   14.1960   -4.9286    0.0000 C   0  0  1  0  0  0
   13.5104   -4.5118    0.0000 C   0  0
   13.5342   -3.7112    0.0000 C   0  0
   12.8494   -3.2945    0.0000 C   0  0
   12.1479   -3.6782    0.0000 C   0  0
   12.1313   -4.4830    0.0000 C   0  0
   12.8167   -4.8960    0.0000 C   0  0
   14.2401   -3.3297    0.0000 C   0  0
   11.4280   -4.8692    0.0000 F   0  0
   17.6893   -3.8053    0.0000 C   0  0
   15.5638   -4.9609    0.0000 C   0  0
   16.9711   -4.9953    0.0000 C   0  0
   15.5639   -5.7638    0.0000 C   0  0
   16.2887   -4.5780    0.0000 N   0  0
   16.9520   -5.7969    0.0000 C   0  0
   16.2505   -6.1811    0.0000 N   0  0
   14.8583   -6.1480    0.0000 N   0  0
   17.6743   -4.6111    0.0000 C   0  0
   18.4582   -3.5800    0.0000 N   0  0
   13.7891   -5.6213    0.0000 C   0  0
   14.9360   -3.7580    0.0000 O   0  0
   14.2631   -2.5128    0.0000 N   0  0
   14.9820   -2.1243    0.0000 C   0  0
   13.5671   -2.0845    0.0000 C   0  0
   18.9153   -4.2348    0.0000 C   0  0
   18.4287   -4.8673    0.0000 N   0  0
   18.7334   -5.6029    0.0000 C   0  0
   19.5243   -5.7072    0.0000 C   0  0
   20.0097   -5.0699    0.0000 C   0  0
   19.7024   -4.3368    0.0000 C   0  0
   19.8383   -6.4616    0.0000 C   0  0
   20.1537   -7.2121    0.0000 N   0  0
 12  1  1  0
  1  2  1  0
  2  3  1  0
  3  4  2  0
  4  5  1  0
  5  6  2  0
  6  7  1  0
  7  8  2  0
  8  3  1  0
  4  9  1  0
  7 10  1  0
 14 12  1  0
 12 15  2  0
 15 13  1  0
 13 16  2  0
 16 17  1  0
 14 17  2  0
 14 18  1  0
 13 19  1  0
 11 19  2  0
 19 27  1  0
 26 20  2  0
 20 11  1  0
  2 21  1  6
  9 22  2  0
  9 23  1  0
 23 24  1  0
 23 25  1  0
 24 11  1  0
 26 27  1  0
 27 28  1  0
 28 29  2  0
 29 30  1  0
 30 31  2  0
 31 26  1  0
 29 32  1  0
 32 33  3  0
M  END
> <From>
www.bindingDB.org

> <BindingDB Reactant_set_id>
50103598

> <Ligand InChI>
InChI=1S/C23H18FN7O2/c1-12-16-7-14(24)4-5-15(16)23(32)30(2)11-18-20(17-9-27-21(26)22(29-17)33-12)31-10-13(8-25)3-6-19(31)28-18/h3-7,9-10,12H,11H2,1-2H3,(H2,26,27)/t12-/m1/s1

> <Ligand InChI Key>
MOENETCLMCOREY-GFCCVEGCSA-N

> <BindingDB MonomerID>
50018842

> <BindingDB Ligand Name>
CHEMBL3286832

> <Target Name>
ALK tyrosine kinase receptor

> <Target Source Organism According to Curator or DataSource>
Homo sapiens

> <Ki (nM)>


> <IC50 (nM)>
 45

> <Kd (nM)>


> <EC50 (nM)>


> <kon (M-1-s-1)>


> <koff (s-1)>


> <pH>


> <Temp C>


> <Curation/DataSource>
ChEMBL

> <Article DOI>
10.1021/jm500261q

> <BindingDB Entry DOI>
10.7270/Q2K35W68

> <PMID>
24819116

> <PubChem AID>


> <Patent Number>


> <Authors>
Johnson, TW; Richardson, PF; Bailey, S; Brooun, A; Burke, BJ; Collins, MR; Cui, JJ; Deal, JG; Deng, YL; Dinh, D; Engstrom, LD; He, M; Hoffman, J; Hoffman, RL; Huang, Q; Kania, RS; Kath, JC; Lam, H; Lam, JL; Le, PT; Lingardo, L; Liu, W; McTigue, M; Palmer, CL; Sach, NW; Smeal, T; Smith, GL; Stewart, AE; Timofeevski, S; Zhu, H; Zhu, J; Zou, HY; Edwards, MP

> <Date of publication>
6/12/2014

> <Date in BindingDB>
2/11/2015

> <Institution>
Pfizer Inc

> <Link to Ligand in BindingDB>
http://www.bindingdb.org/bind/chemsearch/marvin/MolStructure.jsp?monomerid=50018842

> <Link to Ligand-Target Pair in BindingDB>
http://www.bindingdb.org/jsp/dbsearch/PrimarySearch_ki.jsp?energyterm=kJ/mole&tag=pol&polymerid=5809&target=ALK+tyrosine+kinase+receptor&column=ki&startPg=0&Increment=50&submit=Search

> <Link to Ligand-Target Pair in BindingDB>
http://www.bindingdb.org/jsp/dbsearch/PrimarySearch_ki.jsp?energyterm=kJ/mole&tag=r21&monomerid=50018842&enzyme=ALK+tyrosine+kinase+receptor&column=ki&startPg=0&Increment=50&submit=Search

> <Ligand HET ID in PDB>
KVC

> <PDB ID(s) for Ligand-Target Complex>
4CTB

> <PubChem CID of Ligand>
89816720

> <PubChem SID of Ligand>
103929895

> <ChEBI ID of Ligand>


> <ChEMBL ID of Ligand>
CHEMBL3286832

> <DrugBank ID of Ligand>


> <IUPHAR_GRAC ID of Ligand>


> <KEGG ID of Ligand>


> <ZINC ID of Ligand>
ZINC33891518

> <Number of Protein Chains in Target (bigger than 1 implies a multichain complex)>
1

> <BindingDB Target Chain Sequence>
MGAIGLLWLLPLLLSTAAVGSGMGTGQRAGSPAAGPPLQPREPLSYSRLQRKSLAVDFVVPSLFRVYARDLLLPPSSSELKAGRPEARGSLALDCAPLLRLLGPAPGVSWTAGSPAPAEARTLSRVLKGGSVRKLRRAKQLVLELGEEAILEGCVGPPGEAAVGLLQFNLSELFSWWIRQGEGRLRIRLMPEKKASEVGREGRLSAAIRASQPRLLFQIFGTGHSSLESPTNMPSPSPDYFTWNLTWIMKDSFPFLSHRSRYGLECSFDFPCELEYSPPLHDLRNQSWSWRRIPSEEASQMDLLDGPGAERSKEMPRGSFLLLNTSADSKHTILSPWMRSSSEHCTLAVSVHRHLQPSGRYIAQLLPHNEAAREILLMPTPGKHGWTVLQGRIGRPDNPFRVALEYISSGNRSLSAVDFFALKNCSEGTSPGSKMALQSSFTCWNGTVLQLGQACDFHQDCAQGEDESQMCRKLPVGFYCNFEDGFCGWTQGTLSPHTPQWQVRTLKDARFQDHQDHALLLSTTDVPASESATVTSATFPAPIKSSPCELRMSWLIRGVLRGNVSLVLVENKTGKEQGRMVWHVAAYEGLSLWQWMVLPLLDVSDRFWLQMVAWWGQGSRAIVAFDNISISLDCYLTISGEDKILQNTAPKSRNLFERNPNKELKPGENSPRQTPIFDPTVHWLFTTCGASGPHGPTQAQCNNAYQNSNLSVEVGSEGPLKGIQIWKVPATDTYSISGYGAAGGKGGKNTMMRSHGVSVLGIFNLEKDDMLYILVGQQGEDACPSTNQLIQKVCIGENNVIEEEIRVNRSVHEWAGGGGGGGGATYVFKMKDGVPVPLIIAAGGGGRAYGAKTDTFHPERLENNSSVLGLNGNSGAAGGGGGWNDNTSLLWAGKSLQEGATGGHSCPQAMKKWGWETRGGFGGGGGGCSSGGGGGGYIGGNAASNNDPEMDGEDGVSFISPLGILYTPALKVMEGHGEVNIKHYLNCSHCEVDECHMDPESHKVICFCDHGTVLAEDGVSCIVSPTPEPHLPLSLILSVVTSALVAALVLAFSGIMIVYRRKHQELQAMQMELQSPEYKLSKLRTSTIMTDYNPNYCFAGKTSSISDLKEVPRKNITLIRGLGHGAFGEVYEGQVSGMPNDPSPLQVAVKTLPEVCSEQDELDFLMEALIISKFNHQNIVRCIGVSLQSLPRFILLELMAGGDLKSFLRETRPRPSQPSSLAMLDLLHVARDIACGCQYLEENHFIHRDIAARNCLLTCPGPGRVAKIGDFGMARDIYRASYYRKGGCAMLPVKWMPPEAFMEGIFTSKTDTWSFGVLLWEIFSLGYMPYPSKSNQEVLEFVTSGGRMDPPKNCPGPVYRIMTQCWQHQPEDRPNFAIILERIEYCTQDPDVINTALPIEYGPLVEEEEKVPVRPKDPEGVPPLLVSQQAKREEERSPAAPPPLPTTSSGKAAKKPTAAEISVRVPRGPAVEGGHVNMAFSQSNPPSELHKVHGSRNKPTSLWNPTYGSWFTEKPTKKNNPIAKKEPHDRGNLGLEGSCTVPPNVATGRLPGASLLLEPSSLTANMKEVPLFRLRHFPCGNVNYGYQQQGLPLEAATAPGAGHYEDTILKSKNSMNQPGP

> <PDB ID(s) of Target Chain>
2XB7,2XBA,3AOX,5FTO,5FTQ,6E0R,6EBW,6EDL,6MX8,7JY4,7JYR,7JYS,7JYT,7LS0,7MZW,7MZY,7N00,7NX3,7NX4,8ARJ

> <UniProt (SwissProt) Recommended Name of Target Chain>
ALK tyrosine kinase receptor

> <UniProt (SwissProt) Entry Name of Target Chain>
ALK_HUMAN

> <UniProt (SwissProt) Primary ID of Target Chain>
Q9UM73

> <UniProt (SwissProt) Secondary ID(s) of Target Chain>
A6P4T4 A6P4V4 Q4ZFX9 Q53QQ6 Q53RZ4 Q59FI3 Q9Y4K6

> <UniProt (SwissProt) Alternative ID(s) of Target Chain>


> <UniProt (TrEMBL) Submitted Name of Target Chain>


> <UniProt (TrEMBL) Entry Name of Target Chain>


> <UniProt (TrEMBL) Primary ID of Target Chain>


> <UniProt (TrEMBL) Secondary ID(s) of Target Chain>


> <UniProt (TrEMBL) Alternative ID(s) of Target Chain>


$$$$

  SciTegic09261414532D

 30 33  0  0  0  0            999 V2000
   15.5386   -5.1488    0.0000 O   0  0
   14.8183   -5.5433    0.0000 C   0  0  1  0  0  0
   14.1133   -5.1148    0.0000 C   0  0
   14.1378   -4.2915    0.0000 C   0  0
   13.4336   -3.8630    0.0000 C   0  0
   12.7123   -4.2576    0.0000 C   0  0
   12.6952   -5.0851    0.0000 C   0  0
   13.4001   -5.5098    0.0000 C   0  0
   14.8637   -3.8992    0.0000 C   0  0
   11.9721   -5.4822    0.0000 F   0  0
   18.4105   -4.3883    0.0000 C   0  0
   16.2248   -5.5766    0.0000 C   0  0
   17.6719   -5.6120    0.0000 C   0  0
   16.2249   -6.4022    0.0000 C   0  0
   16.9702   -5.1828    0.0000 C   0  0
   17.6523   -6.4363    0.0000 C   0  0
   16.9309   -6.8314    0.0000 N   0  0
   15.4994   -6.7973    0.0000 N   0  0
   18.3950   -5.2168    0.0000 C   0  0
   19.1710   -5.4856    0.0000 C   0  0
   19.6711   -4.8299    0.0000 N   0  0
   19.2011   -4.1567    0.0000 N   0  0
   14.3999   -6.2556    0.0000 C   0  0
   15.5793   -4.3397    0.0000 O   0  0
   14.8873   -3.0593    0.0000 N   0  0
   15.6266   -2.6597    0.0000 C   0  0
   14.1716   -2.6188    0.0000 C   0  0
   20.5114   -4.8476    0.0000 C   0  0
   19.4137   -6.2884    0.0000 C   0  0
   19.6562   -7.0930    0.0000 N   0  0
 12  1  1  0
  1  2  1  0
  2  3  1  0
  3  4  2  0
  4  5  1  0
  5  6  2  0
  6  7  1  0
  7  8  2  0
  8  3  1  0
  4  9  1  0
  7 10  1  0
 14 12  1  0
 12 15  2  0
 15 13  1  0
 13 16  2  0
 16 17  1  0
 14 17  2  0
 14 18  1  0
 13 19  1  0
 11 19  1  0
 19 20  2  0
 20 21  1  0
 21 22  1  0
 22 11  2  0
  2 23  1  6
  9 24  2  0
  9 25  1  0
 25 26  1  0
 25 27  1  0
 26 11  1  0
 21 28  1  0
 29 30  3  0
 20 29  1  0
M  END
> <From>
www.bindingDB.org

> <BindingDB Reactant_set_id>
50103645

> <Ligand InChI>
InChI=1S/C21H19FN6O2/c1-11-15-7-13(22)4-5-14(15)21(29)27(2)10-16-19(17(8-23)28(3)26-16)12-6-18(30-11)20(24)25-9-12/h4-7,9,11H,10H2,1-3H3,(H2,24,25)/t11-/m1/s1

> <Ligand InChI Key>
IIXWYSCJSQVBQM-LLVKDONJSA-N

> <BindingDB MonomerID>
50018830

> <BindingDB Ligand Name>
CHEMBL3286830::US10543199, Compound PF-06463922::US10780082, Compound PF-06463922::US11517561, Compound PF-06463922

> <Target Name>
NT-3 growth factor receptor

> <Target Source Organism According to Curator or DataSource>
Human

> <Ki (nM)>


> <IC50 (nM)>
 46

> <Kd (nM)>


> <EC50 (nM)>


> <kon (M-1-s-1)>


> <koff (s-1)>


> <pH>


> <Temp C>


> <Curation/DataSource>
ChEMBL

> <Article DOI>
10.1021/jm500261q

> <BindingDB Entry DOI>
10.7270/Q2K35W68

> <PMID>
24819116

> <PubChem AID>


> <Patent Number>


> <Authors>
Johnson, TW; Richardson, PF; Bailey, S; Brooun, A; Burke, BJ; Collins, MR; Cui, JJ; Deal, JG; Deng, YL; Dinh, D; Engstrom, LD; He, M; Hoffman, J; Hoffman, RL; Huang, Q; Kania, RS; Kath, JC; Lam, H; Lam, JL; Le, PT; Lingardo, L; Liu, W; McTigue, M; Palmer, CL; Sach, NW; Smeal, T; Smith, GL; Stewart, AE; Timofeevski, S; Zhu, H; Zhu, J; Zou, HY; Edwards, MP

> <Date of publication>
6/12/2014

> <Date in BindingDB>
2/11/2015

> <Institution>
Pfizer Inc

> <Link to Ligand in BindingDB>
http://www.bindingdb.org/bind/chemsearch/marvin/MolStructure.jsp?monomerid=50018830

> <Link to Ligand-Target Pair in BindingDB>
http://www.bindingdb.org/jsp/dbsearch/PrimarySearch_ki.jsp?energyterm=kJ/mole&tag=pol&polymerid=6477&target=NT-3+growth+factor+receptor&column=ki&startPg=0&Increment=50&submit=Search

> <Link to Ligand-Target Pair in BindingDB>
http://www.bindingdb.org/jsp/dbsearch/PrimarySearch_ki.jsp?energyterm=kJ/mole&tag=r21&monomerid=50018830&enzyme=NT-3+growth+factor+receptor&column=ki&startPg=0&Increment=50&submit=Search

> <Ligand HET ID in PDB>
53P

> <PDB ID(s) for Ligand-Target Complex>


> <PubChem CID of Ligand>
71731823

> <PubChem SID of Ligand>
103929883

> <ChEBI ID of Ligand>


> <ChEMBL ID of Ligand>
CHEMBL3286830

> <DrugBank ID of Ligand>


> <IUPHAR_GRAC ID of Ligand>


> <KEGG ID of Ligand>


> <ZINC ID of Ligand>
ZINC33891516

> <Number of Protein Chains in Target (bigger than 1 implies a multichain complex)>
1

> <BindingDB Target Chain Sequence>
MDVSLCPAKCSFWRIFLLGSVWLDYVGSVLACPANCVCSKTEINCRRPDDGNLFPLLEGQDSGNSNGNASINITDISRNITSIHIENWRSLHTLNAVDMELYTGLQKLTIKNSGLRSIQPRAFAKNPHLRYINLSSNRLTTLSWQLFQTLSLRELQLEQNFFNCSCDIRWMQLWQEQGEAKLNSQNLYCINADGSQLPLFRMNISQCDLPEISVSHVNLTVREGDNAVITCNGSGSPLPDVDWIVTGLQSINTHQTNLNWTNVHAINLTLVNVTSEDNGFTLTCIAENVVGMSNASVALTVYYPPRVVSLEEPELRLEHCIEFVVRGNPPPTLHWLHNGQPLRESKIIHVEYYQEGEISEGCLLFNKPTHYNNGNYTLIAKNPLGTANQTINGHFLKEPFPESTDNFILFDEVSPTPPITVTHKPEEDTFGVSIAVGLAAFACVLLVVLFVMINKYGRRSKFGMKGPVAVISGEEDSASPLHHINHGITTPSSLDAGPDTVVIGMTRIPVIENPQYFRQGHNCHKPDTYVQHIKRRDIVLKRELGEGAFGKVFLAECYNLSPTKDKMLVAVKALKDPTLAARKDFQREAELLTNLQHEHIVKFYGVCGDGDPLIMVFEYMKHGDLNKFLRAHGPDAMILVDGQPRQAKGELGLSQMLHIASQIASGMVYLASQHFVHRDLATRNCLVGANLLVKIGDFGMSRDVYSTDYYRLFNPSGNDFCIWCEVGGHTMLPIRWMPPESIMYRKFTTESDVWSFGVILWEIFTYGKQPWFQLSNTEVIECITQGRVLERPRVCPKEVYDVMLGCWQREPQQRLNIKEIYKILHALGKATPIYLDILG

> <PDB ID(s) of Target Chain>
6KZC,6KZD

> <UniProt (SwissProt) Recommended Name of Target Chain>
NT-3 growth factor receptor

> <UniProt (SwissProt) Entry Name of Target Chain>
NTRK3_HUMAN

> <UniProt (SwissProt) Primary ID of Target Chain>
Q16288

> <UniProt (SwissProt) Secondary ID(s) of Target Chain>
B7Z4C5 E9PG56 H0YND1 O75682 Q12827 Q16289

> <UniProt (SwissProt) Alternative ID(s) of Target Chain>


> <UniProt (TrEMBL) Submitted Name of Target Chain>


> <UniProt (TrEMBL) Entry Name of Target Chain>


> <UniProt (TrEMBL) Primary ID of Target Chain>


> <UniProt (TrEMBL) Secondary ID(s) of Target Chain>


> <UniProt (TrEMBL) Alternative ID(s) of Target Chain>


$$$$

  SciTegic09261414532D

 30 33  0  0  0  0            999 V2000
   15.5386   -5.1488    0.0000 O   0  0
   14.8183   -5.5433    0.0000 C   0  0  1  0  0  0
   14.1133   -5.1148    0.0000 C   0  0
   14.1378   -4.2915    0.0000 C   0  0
   13.4336   -3.8630    0.0000 C   0  0
   12.7123   -4.2576    0.0000 C   0  0
   12.6952   -5.0851    0.0000 C   0  0
   13.4001   -5.5098    0.0000 C   0  0
   14.8637   -3.8992    0.0000 C   0  0
   11.9721   -5.4822    0.0000 F   0  0
   18.4105   -4.3883    0.0000 C   0  0
   16.2248   -5.5766    0.0000 C   0  0
   17.6719   -5.6120    0.0000 C   0  0
   16.2249   -6.4022    0.0000 C   0  0
   16.9702   -5.1828    0.0000 C   0  0
   17.6523   -6.4363    0.0000 C   0  0
   16.9309   -6.8314    0.0000 N   0  0
   15.4994   -6.7973    0.0000 N   0  0
   18.3950   -5.2168    0.0000 C   0  0
   19.1710   -5.4856    0.0000 C   0  0
   19.6711   -4.8299    0.0000 N   0  0
   19.2011   -4.1567    0.0000 N   0  0
   14.3999   -6.2556    0.0000 C   0  0
   15.5793   -4.3397    0.0000 O   0  0
   14.8873   -3.0593    0.0000 N   0  0
   15.6266   -2.6597    0.0000 C   0  0
   14.1716   -2.6188    0.0000 C   0  0
   20.5114   -4.8476    0.0000 C   0  0
   19.4137   -6.2884    0.0000 C   0  0
   19.6562   -7.0930    0.0000 N   0  0
 12  1  1  0
  1  2  1  0
  2  3  1  0
  3  4  2  0
  4  5  1  0
  5  6  2  0
  6  7  1  0
  7  8  2  0
  8  3  1  0
  4  9  1  0
  7 10  1  0
 14 12  1  0
 12 15  2  0
 15 13  1  0
 13 16  2  0
 16 17  1  0
 14 17  2  0
 14 18  1  0
 13 19  1  0
 11 19  1  0
 19 20  2  0
 20 21  1  0
 21 22  1  0
 22 11  2  0
  2 23  1  6
  9 24  2  0
  9 25  1  0
 25 26  1  0
 25 27  1  0
 26 11  1  0
 21 28  1  0
 29 30  3  0
 20 29  1  0
M  END
> <From>
www.bindingDB.org

> <BindingDB Reactant_set_id>
50103646

> <Ligand InChI>
InChI=1S/C21H19FN6O2/c1-11-15-7-13(22)4-5-14(15)21(29)27(2)10-16-19(17(8-23)28(3)26-16)12-6-18(30-11)20(24)25-9-12/h4-7,9,11H,10H2,1-3H3,(H2,24,25)/t11-/m1/s1

> <Ligand InChI Key>
IIXWYSCJSQVBQM-LLVKDONJSA-N

> <BindingDB MonomerID>
50018830

> <BindingDB Ligand Name>
CHEMBL3286830::US10543199, Compound PF-06463922::US10780082, Compound PF-06463922::US11517561, Compound PF-06463922

> <Target Name>
Tyrosine-protein kinase FRK

> <Target Source Organism According to Curator or DataSource>
Homo sapiens

> <Ki (nM)>


> <IC50 (nM)>
 53

> <Kd (nM)>


> <EC50 (nM)>


> <kon (M-1-s-1)>


> <koff (s-1)>


> <pH>


> <Temp C>


> <Curation/DataSource>
ChEMBL

> <Article DOI>
10.1021/jm500261q

> <BindingDB Entry DOI>
10.7270/Q2K35W68

> <PMID>
24819116

> <PubChem AID>


> <Patent Number>


> <Authors>
Johnson, TW; Richardson, PF; Bailey, S; Brooun, A; Burke, BJ; Collins, MR; Cui, JJ; Deal, JG; Deng, YL; Dinh, D; Engstrom, LD; He, M; Hoffman, J; Hoffman, RL; Huang, Q; Kania, RS; Kath, JC; Lam, H; Lam, JL; Le, PT; Lingardo, L; Liu, W; McTigue, M; Palmer, CL; Sach, NW; Smeal, T; Smith, GL; Stewart, AE; Timofeevski, S; Zhu, H; Zhu, J; Zou, HY; Edwards, MP

> <Date of publication>
6/12/2014

> <Date in BindingDB>
2/11/2015

> <Institution>
Pfizer Inc

> <Link to Ligand in BindingDB>
http://www.bindingdb.org/bind/chemsearch/marvin/MolStructure.jsp?monomerid=50018830

> <Link to Ligand-Target Pair in BindingDB>
http://www.bindingdb.org/jsp/dbsearch/PrimarySearch_ki.jsp?energyterm=kJ/mole&tag=pol&polymerid=2863&target=Tyrosine-protein+kinase+FRK&column=ki&startPg=0&Increment=50&submit=Search

> <Link to Ligand-Target Pair in BindingDB>
http://www.bindingdb.org/jsp/dbsearch/PrimarySearch_ki.jsp?energyterm=kJ/mole&tag=r21&monomerid=50018830&enzyme=Tyrosine-protein+kinase+FRK&column=ki&startPg=0&Increment=50&submit=Search

> <Ligand HET ID in PDB>
53P

> <PDB ID(s) for Ligand-Target Complex>


> <PubChem CID of Ligand>
71731823

> <PubChem SID of Ligand>
103929883

> <ChEBI ID of Ligand>


> <ChEMBL ID of Ligand>
CHEMBL3286830

> <DrugBank ID of Ligand>


> <IUPHAR_GRAC ID of Ligand>


> <KEGG ID of Ligand>


> <ZINC ID of Ligand>
ZINC33891516

> <Number of Protein Chains in Target (bigger than 1 implies a multichain complex)>
1

> <BindingDB Target Chain Sequence>
MSNICQRLWEYLEPYLPCLSTEADKSTVIENPGALCSPQSQRHGHYFVALFDYQARTAEDLSFRAGDKLQVLDTLHEGWWFARHLEKRRDGSSQQLQGYIPSNYVAEDRSLQAEPWFFGAIGRSDAEKQLLYSENKTGSFLIRESESQKGEFSLSVLDGAVVKHYRIKRLDEGGFFLTRRRIFSTLNEFVSHYTKTSDGLCVKLGKPCLKIQVPAPFDLSYKTVDQWEIDRNSIQLLKRLGSGQFGEVWEGLWNNTTPVAVKTLKPGSMDPNDFLREAQIMKNLRHPKLIQLYAVCTLEDPIYIITELMRHGSLQEYLQNDTGSKIHLTQQVDMAAQVASGMAYLESRNYIHRDLAARNVLVGEHNIYKVADFGLARVFKVDNEDIYESRHEIKLPVKWTAPEAIRSNKFSIKSDVWSFGILLYEIITYGKMPYSGMTGAQVIQMLAQNYRLPQPSNCPQQFYNIMLECWNAEPKERPTFETLRWKLEDYFETDSSYSDANNFIR

> <PDB ID(s) of Target Chain>


> <UniProt (SwissProt) Recommended Name of Target Chain>
Tyrosine-protein kinase FRK

> <UniProt (SwissProt) Entry Name of Target Chain>
FRK_HUMAN

> <UniProt (SwissProt) Primary ID of Target Chain>
P42685

> <UniProt (SwissProt) Secondary ID(s) of Target Chain>
B4DY49 Q13128 Q9NTR5

> <UniProt (SwissProt) Alternative ID(s) of Target Chain>


> <UniProt (TrEMBL) Submitted Name of Target Chain>


> <UniProt (TrEMBL) Entry Name of Target Chain>


> <UniProt (TrEMBL) Primary ID of Target Chain>


> <UniProt (TrEMBL) Secondary ID(s) of Target Chain>


> <UniProt (TrEMBL) Alternative ID(s) of Target Chain>


$$$$

  SciTegic09261414532D

 30 33  0  0  0  0            999 V2000
   22.0185  -11.1211    0.0000 C   0  0
   21.2964  -11.5122    0.0000 C   0  0
   19.8604  -12.2972    0.0000 C   0  0
   19.8795  -11.4791    0.0000 C   0  0
   20.5975  -11.0866    0.0000 N   0  0
   21.2773  -12.3303    0.0000 C   0  0
   20.5593  -12.7228    0.0000 N   0  0
   19.1423  -12.6897    0.0000 N   0  0
   19.1806  -11.0535    0.0000 O   0  0
   19.1999  -10.2352    0.0000 C   0  0  2  0  0  0
   19.9373   -9.8811    0.0000 C   0  0
   18.4972   -9.8159    0.0000 C   0  0
   17.7828  -10.2148    0.0000 C   0  0
   17.0800   -9.7956    0.0000 C   0  0
   17.0918   -8.9774    0.0000 C   0  0
   17.8063   -8.5784    0.0000 C   0  0
   18.5090   -8.9977    0.0000 C   0  0
   16.3656  -10.1945    0.0000 F   0  0
   19.2225   -8.5993    0.0000 N   0  0
   19.9613   -8.9433    0.0000 N   0  0
   20.5168   -8.3439    0.0000 C   0  0
   20.1184   -7.6303    0.0000 C   0  0
   19.3167   -7.7889    0.0000 N   0  0
   22.7158  -11.5524    0.0000 C   0  0
   23.4374  -11.1620    0.0000 N   0  0
   23.4602  -10.3402    0.0000 C   0  0
   22.7555   -9.9105    0.0000 C   0  0
   22.0368  -10.3033    0.0000 C   0  0
   22.6921  -12.3693    0.0000 O   0  0
   21.9729  -12.7572    0.0000 C   0  0
  2  1  1  0
  3  4  1  0
  4  5  2  0
  5  2  1  0
  2  6  2  0
  6  7  1  0
  3  7  2  0
  3  8  1  0
 10 11  1  1
  9 10  1  0
 12 13  1  0
 13 14  2  0
 14 15  1  0
 15 16  2  0
 16 17  1  0
 12 17  2  0
 14 18  1  0
 10 12  1  0
  4  9  1  0
 17 19  1  0
 19 20  1  0
 20 21  2  0
 21 22  1  0
 22 23  2  0
 23 19  1  0
  1 24  2  0
 24 25  1  0
 25 26  2  0
 26 27  1  0
 27 28  2  0
 28  1  1  0
 24 29  1  0
 29 30  1  0
M  END
> <From>
www.bindingDB.org

> <BindingDB Reactant_set_id>
50103707

> <Ligand InChI>
InChI=1S/C20H18FN7O2/c1-12(15-10-13(21)5-6-17(15)28-25-8-9-26-28)30-20-18(22)24-11-16(27-20)14-4-3-7-23-19(14)29-2/h3-12H,1-2H3,(H2,22,24)/t12-/m1/s1

> <Ligand InChI Key>
RXGKFHNEIKQBGI-GFCCVEGCSA-N

> <BindingDB MonomerID>
50018821

> <BindingDB Ligand Name>
CHEMBL3286811

> <Target Name>
ALK tyrosine kinase receptor

> <Target Source Organism According to Curator or DataSource>
Homo sapiens

> <Ki (nM)>


> <IC50 (nM)>
 53

> <Kd (nM)>


> <EC50 (nM)>


> <kon (M-1-s-1)>


> <koff (s-1)>


> <pH>


> <Temp C>


> <Curation/DataSource>
ChEMBL

> <Article DOI>
10.1021/jm500261q

> <BindingDB Entry DOI>
10.7270/Q2K35W68

> <PMID>
24819116

> <PubChem AID>


> <Patent Number>


> <Authors>
Johnson, TW; Richardson, PF; Bailey, S; Brooun, A; Burke, BJ; Collins, MR; Cui, JJ; Deal, JG; Deng, YL; Dinh, D; Engstrom, LD; He, M; Hoffman, J; Hoffman, RL; Huang, Q; Kania, RS; Kath, JC; Lam, H; Lam, JL; Le, PT; Lingardo, L; Liu, W; McTigue, M; Palmer, CL; Sach, NW; Smeal, T; Smith, GL; Stewart, AE; Timofeevski, S; Zhu, H; Zhu, J; Zou, HY; Edwards, MP

> <Date of publication>
6/12/2014

> <Date in BindingDB>
2/11/2015

> <Institution>
Pfizer Inc

> <Link to Ligand in BindingDB>
http://www.bindingdb.org/bind/chemsearch/marvin/MolStructure.jsp?monomerid=50018821

> <Link to Ligand-Target Pair in BindingDB>
http://www.bindingdb.org/jsp/dbsearch/PrimarySearch_ki.jsp?energyterm=kJ/mole&tag=pol&polymerid=5809&target=ALK+tyrosine+kinase+receptor&column=ki&startPg=0&Increment=50&submit=Search

> <Link to Ligand-Target Pair in BindingDB>
http://www.bindingdb.org/jsp/dbsearch/PrimarySearch_ki.jsp?energyterm=kJ/mole&tag=r21&monomerid=50018821&enzyme=ALK+tyrosine+kinase+receptor&column=ki&startPg=0&Increment=50&submit=Search

> <Ligand HET ID in PDB>


> <PDB ID(s) for Ligand-Target Complex>


> <PubChem CID of Ligand>
89713230

> <PubChem SID of Ligand>
103929874

> <ChEBI ID of Ligand>


> <ChEMBL ID of Ligand>
CHEMBL3286811

> <DrugBank ID of Ligand>


> <IUPHAR_GRAC ID of Ligand>


> <KEGG ID of Ligand>


> <ZINC ID of Ligand>
ZINC33891536

> <Number of Protein Chains in Target (bigger than 1 implies a multichain complex)>
1

> <BindingDB Target Chain Sequence>
MGAIGLLWLLPLLLSTAAVGSGMGTGQRAGSPAAGPPLQPREPLSYSRLQRKSLAVDFVVPSLFRVYARDLLLPPSSSELKAGRPEARGSLALDCAPLLRLLGPAPGVSWTAGSPAPAEARTLSRVLKGGSVRKLRRAKQLVLELGEEAILEGCVGPPGEAAVGLLQFNLSELFSWWIRQGEGRLRIRLMPEKKASEVGREGRLSAAIRASQPRLLFQIFGTGHSSLESPTNMPSPSPDYFTWNLTWIMKDSFPFLSHRSRYGLECSFDFPCELEYSPPLHDLRNQSWSWRRIPSEEASQMDLLDGPGAERSKEMPRGSFLLLNTSADSKHTILSPWMRSSSEHCTLAVSVHRHLQPSGRYIAQLLPHNEAAREILLMPTPGKHGWTVLQGRIGRPDNPFRVALEYISSGNRSLSAVDFFALKNCSEGTSPGSKMALQSSFTCWNGTVLQLGQACDFHQDCAQGEDESQMCRKLPVGFYCNFEDGFCGWTQGTLSPHTPQWQVRTLKDARFQDHQDHALLLSTTDVPASESATVTSATFPAPIKSSPCELRMSWLIRGVLRGNVSLVLVENKTGKEQGRMVWHVAAYEGLSLWQWMVLPLLDVSDRFWLQMVAWWGQGSRAIVAFDNISISLDCYLTISGEDKILQNTAPKSRNLFERNPNKELKPGENSPRQTPIFDPTVHWLFTTCGASGPHGPTQAQCNNAYQNSNLSVEVGSEGPLKGIQIWKVPATDTYSISGYGAAGGKGGKNTMMRSHGVSVLGIFNLEKDDMLYILVGQQGEDACPSTNQLIQKVCIGENNVIEEEIRVNRSVHEWAGGGGGGGGATYVFKMKDGVPVPLIIAAGGGGRAYGAKTDTFHPERLENNSSVLGLNGNSGAAGGGGGWNDNTSLLWAGKSLQEGATGGHSCPQAMKKWGWETRGGFGGGGGGCSSGGGGGGYIGGNAASNNDPEMDGEDGVSFISPLGILYTPALKVMEGHGEVNIKHYLNCSHCEVDECHMDPESHKVICFCDHGTVLAEDGVSCIVSPTPEPHLPLSLILSVVTSALVAALVLAFSGIMIVYRRKHQELQAMQMELQSPEYKLSKLRTSTIMTDYNPNYCFAGKTSSISDLKEVPRKNITLIRGLGHGAFGEVYEGQVSGMPNDPSPLQVAVKTLPEVCSEQDELDFLMEALIISKFNHQNIVRCIGVSLQSLPRFILLELMAGGDLKSFLRETRPRPSQPSSLAMLDLLHVARDIACGCQYLEENHFIHRDIAARNCLLTCPGPGRVAKIGDFGMARDIYRASYYRKGGCAMLPVKWMPPEAFMEGIFTSKTDTWSFGVLLWEIFSLGYMPYPSKSNQEVLEFVTSGGRMDPPKNCPGPVYRIMTQCWQHQPEDRPNFAIILERIEYCTQDPDVINTALPIEYGPLVEEEEKVPVRPKDPEGVPPLLVSQQAKREEERSPAAPPPLPTTSSGKAAKKPTAAEISVRVPRGPAVEGGHVNMAFSQSNPPSELHKVHGSRNKPTSLWNPTYGSWFTEKPTKKNNPIAKKEPHDRGNLGLEGSCTVPPNVATGRLPGASLLLEPSSLTANMKEVPLFRLRHFPCGNVNYGYQQQGLPLEAATAPGAGHYEDTILKSKNSMNQPGP

> <PDB ID(s) of Target Chain>
2XB7,2XBA,3AOX,5FTO,5FTQ,6E0R,6EBW,6EDL,6MX8,7JY4,7JYR,7JYS,7JYT,7LS0,7MZW,7MZY,7N00,7NX3,7NX4,8ARJ

> <UniProt (SwissProt) Recommended Name of Target Chain>
ALK tyrosine kinase receptor

> <UniProt (SwissProt) Entry Name of Target Chain>
ALK_HUMAN

> <UniProt (SwissProt) Primary ID of Target Chain>
Q9UM73

> <UniProt (SwissProt) Secondary ID(s) of Target Chain>
A6P4T4 A6P4V4 Q4ZFX9 Q53QQ6 Q53RZ4 Q59FI3 Q9Y4K6

> <UniProt (SwissProt) Alternative ID(s) of Target Chain>


> <UniProt (TrEMBL) Submitted Name of Target Chain>


> <UniProt (TrEMBL) Entry Name of Target Chain>


> <UniProt (TrEMBL) Primary ID of Target Chain>


> <UniProt (TrEMBL) Secondary ID(s) of Target Chain>


> <UniProt (TrEMBL) Alternative ID(s) of Target Chain>


$$$$

  SciTegic09261414532D

 32 35  0  0  0  0            999 V2000
    8.1893   -5.2576    0.0000 S   0  0
    7.7640   -5.9554    0.0000 O   0  0
    8.5809   -5.9749    0.0000 O   0  0
    5.3612   -5.1893    0.0000 C   0  0
    3.9251   -5.9743    0.0000 C   0  0
    3.9443   -5.1562    0.0000 C   0  0
    4.6623   -4.7637    0.0000 C   0  0
    5.3421   -6.0074    0.0000 C   0  0
    4.6241   -6.3999    0.0000 N   0  0
    3.2071   -6.3668    0.0000 N   0  0
    3.2453   -4.7306    0.0000 O   0  0
    3.2647   -3.9123    0.0000 C   0  0  2  0  0  0
    4.0021   -3.5582    0.0000 C   0  0
    2.5620   -3.4930    0.0000 C   0  0
    1.8475   -3.8919    0.0000 C   0  0
    1.1448   -3.4727    0.0000 C   0  0
    1.1566   -2.6544    0.0000 C   0  0
    1.8710   -2.2555    0.0000 C   0  0
    2.5737   -2.6748    0.0000 C   0  0
    0.4303   -3.8716    0.0000 F   0  0
    3.2872   -2.2764    0.0000 N   0  0
    4.0261   -2.6204    0.0000 N   0  0
    4.5816   -2.0210    0.0000 C   0  0
    4.1831   -1.3074    0.0000 C   0  0
    3.3815   -1.4660    0.0000 N   0  0
    6.0768   -4.7968    0.0000 C   0  0
    6.7750   -5.2235    0.0000 C   0  0
    7.4916   -4.8322    0.0000 C   0  0
    7.5111   -4.0144    0.0000 C   0  0
    6.8082   -3.5894    0.0000 C   0  0
    6.0945   -3.9831    0.0000 C   0  0
    8.9066   -4.8660    0.0000 C   0  0
  2  1  2  0
  1  3  2  0
  5  6  1  0
  6  7  2  0
  7  4  1  0
  4  8  2  0
  8  9  1  0
  5  9  2  0
  5 10  1  0
 12 13  1  1
 11 12  1  0
 14 15  1  0
 15 16  2  0
 16 17  1  0
 17 18  2  0
 18 19  1  0
 14 19  2  0
 16 20  1  0
 12 14  1  0
  6 11  1  0
 19 21  1  0
 21 22  1  0
 22 23  2  0
 23 24  1  0
 24 25  2  0
 25 21  1  0
 26 27  2  0
 27 28  1  0
 28 29  2  0
 29 30  1  0
 30 31  2  0
 31 26  1  0
  4 26  1  0
 28  1  1  0
  1 32  1  0
M  END
> <From>
www.bindingDB.org

> <BindingDB Reactant_set_id>
50103709

> <Ligand InChI>
InChI=1S/C22H20FN5O3S/c1-14(19-12-17(23)6-7-20(19)28-26-8-9-27-28)31-21-11-16(13-25-22(21)24)15-4-3-5-18(10-15)32(2,29)30/h3-14H,1-2H3,(H2,24,25)/t14-/m1/s1

> <Ligand InChI Key>
BCKZYTLSGWMFTG-CQSZACIVSA-N

> <BindingDB MonomerID>
50018823

> <BindingDB Ligand Name>
CHEMBL3286813

> <Target Name>
ALK tyrosine kinase receptor

> <Target Source Organism According to Curator or DataSource>
Homo sapiens

> <Ki (nM)>


> <IC50 (nM)>
 54

> <Kd (nM)>


> <EC50 (nM)>


> <kon (M-1-s-1)>


> <koff (s-1)>


> <pH>


> <Temp C>


> <Curation/DataSource>
ChEMBL

> <Article DOI>
10.1021/jm500261q

> <BindingDB Entry DOI>
10.7270/Q2K35W68

> <PMID>
24819116

> <PubChem AID>


> <Patent Number>


> <Authors>
Johnson, TW; Richardson, PF; Bailey, S; Brooun, A; Burke, BJ; Collins, MR; Cui, JJ; Deal, JG; Deng, YL; Dinh, D; Engstrom, LD; He, M; Hoffman, J; Hoffman, RL; Huang, Q; Kania, RS; Kath, JC; Lam, H; Lam, JL; Le, PT; Lingardo, L; Liu, W; McTigue, M; Palmer, CL; Sach, NW; Smeal, T; Smith, GL; Stewart, AE; Timofeevski, S; Zhu, H; Zhu, J; Zou, HY; Edwards, MP

> <Date of publication>
6/12/2014

> <Date in BindingDB>
2/11/2015

> <Institution>
Pfizer Inc

> <Link to Ligand in BindingDB>
http://www.bindingdb.org/bind/chemsearch/marvin/MolStructure.jsp?monomerid=50018823

> <Link to Ligand-Target Pair in BindingDB>
http://www.bindingdb.org/jsp/dbsearch/PrimarySearch_ki.jsp?energyterm=kJ/mole&tag=pol&polymerid=5809&target=ALK+tyrosine+kinase+receptor&column=ki&startPg=0&Increment=50&submit=Search

> <Link to Ligand-Target Pair in BindingDB>
http://www.bindingdb.org/jsp/dbsearch/PrimarySearch_ki.jsp?energyterm=kJ/mole&tag=r21&monomerid=50018823&enzyme=ALK+tyrosine+kinase+receptor&column=ki&startPg=0&Increment=50&submit=Search

> <Ligand HET ID in PDB>


> <PDB ID(s) for Ligand-Target Complex>


> <PubChem CID of Ligand>
73819543

> <PubChem SID of Ligand>
103929876

> <ChEBI ID of Ligand>


> <ChEMBL ID of Ligand>
CHEMBL3286813

> <DrugBank ID of Ligand>


> <IUPHAR_GRAC ID of Ligand>


> <KEGG ID of Ligand>


> <ZINC ID of Ligand>
ZINC34216072

> <Number of Protein Chains in Target (bigger than 1 implies a multichain complex)>
1

> <BindingDB Target Chain Sequence>
MGAIGLLWLLPLLLSTAAVGSGMGTGQRAGSPAAGPPLQPREPLSYSRLQRKSLAVDFVVPSLFRVYARDLLLPPSSSELKAGRPEARGSLALDCAPLLRLLGPAPGVSWTAGSPAPAEARTLSRVLKGGSVRKLRRAKQLVLELGEEAILEGCVGPPGEAAVGLLQFNLSELFSWWIRQGEGRLRIRLMPEKKASEVGREGRLSAAIRASQPRLLFQIFGTGHSSLESPTNMPSPSPDYFTWNLTWIMKDSFPFLSHRSRYGLECSFDFPCELEYSPPLHDLRNQSWSWRRIPSEEASQMDLLDGPGAERSKEMPRGSFLLLNTSADSKHTILSPWMRSSSEHCTLAVSVHRHLQPSGRYIAQLLPHNEAAREILLMPTPGKHGWTVLQGRIGRPDNPFRVALEYISSGNRSLSAVDFFALKNCSEGTSPGSKMALQSSFTCWNGTVLQLGQACDFHQDCAQGEDESQMCRKLPVGFYCNFEDGFCGWTQGTLSPHTPQWQVRTLKDARFQDHQDHALLLSTTDVPASESATVTSATFPAPIKSSPCELRMSWLIRGVLRGNVSLVLVENKTGKEQGRMVWHVAAYEGLSLWQWMVLPLLDVSDRFWLQMVAWWGQGSRAIVAFDNISISLDCYLTISGEDKILQNTAPKSRNLFERNPNKELKPGENSPRQTPIFDPTVHWLFTTCGASGPHGPTQAQCNNAYQNSNLSVEVGSEGPLKGIQIWKVPATDTYSISGYGAAGGKGGKNTMMRSHGVSVLGIFNLEKDDMLYILVGQQGEDACPSTNQLIQKVCIGENNVIEEEIRVNRSVHEWAGGGGGGGGATYVFKMKDGVPVPLIIAAGGGGRAYGAKTDTFHPERLENNSSVLGLNGNSGAAGGGGGWNDNTSLLWAGKSLQEGATGGHSCPQAMKKWGWETRGGFGGGGGGCSSGGGGGGYIGGNAASNNDPEMDGEDGVSFISPLGILYTPALKVMEGHGEVNIKHYLNCSHCEVDECHMDPESHKVICFCDHGTVLAEDGVSCIVSPTPEPHLPLSLILSVVTSALVAALVLAFSGIMIVYRRKHQELQAMQMELQSPEYKLSKLRTSTIMTDYNPNYCFAGKTSSISDLKEVPRKNITLIRGLGHGAFGEVYEGQVSGMPNDPSPLQVAVKTLPEVCSEQDELDFLMEALIISKFNHQNIVRCIGVSLQSLPRFILLELMAGGDLKSFLRETRPRPSQPSSLAMLDLLHVARDIACGCQYLEENHFIHRDIAARNCLLTCPGPGRVAKIGDFGMARDIYRASYYRKGGCAMLPVKWMPPEAFMEGIFTSKTDTWSFGVLLWEIFSLGYMPYPSKSNQEVLEFVTSGGRMDPPKNCPGPVYRIMTQCWQHQPEDRPNFAIILERIEYCTQDPDVINTALPIEYGPLVEEEEKVPVRPKDPEGVPPLLVSQQAKREEERSPAAPPPLPTTSSGKAAKKPTAAEISVRVPRGPAVEGGHVNMAFSQSNPPSELHKVHGSRNKPTSLWNPTYGSWFTEKPTKKNNPIAKKEPHDRGNLGLEGSCTVPPNVATGRLPGASLLLEPSSLTANMKEVPLFRLRHFPCGNVNYGYQQQGLPLEAATAPGAGHYEDTILKSKNSMNQPGP

> <PDB ID(s) of Target Chain>
2XB7,2XBA,3AOX,5FTO,5FTQ,6E0R,6EBW,6EDL,6MX8,7JY4,7JYR,7JYS,7JYT,7LS0,7MZW,7MZY,7N00,7NX3,7NX4,8ARJ

> <UniProt (SwissProt) Recommended Name of Target Chain>
ALK tyrosine kinase receptor

> <UniProt (SwissProt) Entry Name of Target Chain>
ALK_HUMAN

> <UniProt (SwissProt) Primary ID of Target Chain>
Q9UM73

> <UniProt (SwissProt) Secondary ID(s) of Target Chain>
A6P4T4 A6P4V4 Q4ZFX9 Q53QQ6 Q53RZ4 Q59FI3 Q9Y4K6

> <UniProt (SwissProt) Alternative ID(s) of Target Chain>


> <UniProt (TrEMBL) Submitted Name of Target Chain>


> <UniProt (TrEMBL) Entry Name of Target Chain>


> <UniProt (TrEMBL) Primary ID of Target Chain>


> <UniProt (TrEMBL) Secondary ID(s) of Target Chain>


> <UniProt (TrEMBL) Alternative ID(s) of Target Chain>


$$$$

  SciTegic09261414532D

 30 33  0  0  0  0            999 V2000
   15.5386   -5.1488    0.0000 O   0  0
   14.8183   -5.5433    0.0000 C   0  0  1  0  0  0
   14.1133   -5.1148    0.0000 C   0  0
   14.1378   -4.2915    0.0000 C   0  0
   13.4336   -3.8630    0.0000 C   0  0
   12.7123   -4.2576    0.0000 C   0  0
   12.6952   -5.0851    0.0000 C   0  0
   13.4001   -5.5098    0.0000 C   0  0
   14.8637   -3.8992    0.0000 C   0  0
   11.9721   -5.4822    0.0000 F   0  0
   18.4105   -4.3883    0.0000 C   0  0
   16.2248   -5.5766    0.0000 C   0  0
   17.6719   -5.6120    0.0000 C   0  0
   16.2249   -6.4022    0.0000 C   0  0
   16.9702   -5.1828    0.0000 C   0  0
   17.6523   -6.4363    0.0000 C   0  0
   16.9309   -6.8314    0.0000 N   0  0
   15.4994   -6.7973    0.0000 N   0  0
   18.3950   -5.2168    0.0000 C   0  0
   19.1710   -5.4856    0.0000 C   0  0
   19.6711   -4.8299    0.0000 N   0  0
   19.2011   -4.1567    0.0000 N   0  0
   14.3999   -6.2556    0.0000 C   0  0
   15.5793   -4.3397    0.0000 O   0  0
   14.8873   -3.0593    0.0000 N   0  0
   15.6266   -2.6597    0.0000 C   0  0
   14.1716   -2.6188    0.0000 C   0  0
   20.5114   -4.8476    0.0000 C   0  0
   19.4137   -6.2884    0.0000 C   0  0
   19.6562   -7.0930    0.0000 N   0  0
 12  1  1  0
  1  2  1  0
  2  3  1  0
  3  4  2  0
  4  5  1  0
  5  6  2  0
  6  7  1  0
  7  8  2  0
  8  3  1  0
  4  9  1  0
  7 10  1  0
 14 12  1  0
 12 15  2  0
 15 13  1  0
 13 16  2  0
 16 17  1  0
 14 17  2  0
 14 18  1  0
 13 19  1  0
 11 19  1  0
 19 20  2  0
 20 21  1  0
 21 22  1  0
 22 11  2  0
  2 23  1  6
  9 24  2  0
  9 25  1  0
 25 26  1  0
 25 27  1  0
 26 11  1  0
 21 28  1  0
 29 30  3  0
 20 29  1  0
M  END
> <From>
www.bindingDB.org

> <BindingDB Reactant_set_id>
50103626

> <Ligand InChI>
InChI=1S/C21H19FN6O2/c1-11-15-7-13(22)4-5-14(15)21(29)27(2)10-16-19(17(8-23)28(3)26-16)12-6-18(30-11)20(24)25-9-12/h4-7,9,11H,10H2,1-3H3,(H2,24,25)/t11-/m1/s1

> <Ligand InChI Key>
IIXWYSCJSQVBQM-LLVKDONJSA-N

> <BindingDB MonomerID>
50018830

> <BindingDB Ligand Name>
CHEMBL3286830::US10543199, Compound PF-06463922::US10780082, Compound PF-06463922::US11517561, Compound PF-06463922

> <Target Name>
ALK tyrosine kinase receptor

> <Target Source Organism According to Curator or DataSource>
Homo sapiens

> <Ki (nM)>


> <IC50 (nM)>
 77

> <Kd (nM)>


> <EC50 (nM)>


> <kon (M-1-s-1)>


> <koff (s-1)>


> <pH>


> <Temp C>


> <Curation/DataSource>
ChEMBL

> <Article DOI>
10.1021/jm500261q

> <BindingDB Entry DOI>
10.7270/Q2K35W68

> <PMID>
24819116

> <PubChem AID>


> <Patent Number>


> <Authors>
Johnson, TW; Richardson, PF; Bailey, S; Brooun, A; Burke, BJ; Collins, MR; Cui, JJ; Deal, JG; Deng, YL; Dinh, D; Engstrom, LD; He, M; Hoffman, J; Hoffman, RL; Huang, Q; Kania, RS; Kath, JC; Lam, H; Lam, JL; Le, PT; Lingardo, L; Liu, W; McTigue, M; Palmer, CL; Sach, NW; Smeal, T; Smith, GL; Stewart, AE; Timofeevski, S; Zhu, H; Zhu, J; Zou, HY; Edwards, MP

> <Date of publication>
6/12/2014

> <Date in BindingDB>
2/11/2015

> <Institution>
Pfizer Inc

> <Link to Ligand in BindingDB>
http://www.bindingdb.org/bind/chemsearch/marvin/MolStructure.jsp?monomerid=50018830

> <Link to Ligand-Target Pair in BindingDB>
http://www.bindingdb.org/jsp/dbsearch/PrimarySearch_ki.jsp?energyterm=kJ/mole&tag=pol&polymerid=5809&target=ALK+tyrosine+kinase+receptor&column=ki&startPg=0&Increment=50&submit=Search

> <Link to Ligand-Target Pair in BindingDB>
http://www.bindingdb.org/jsp/dbsearch/PrimarySearch_ki.jsp?energyterm=kJ/mole&tag=r21&monomerid=50018830&enzyme=ALK+tyrosine+kinase+receptor&column=ki&startPg=0&Increment=50&submit=Search

> <Ligand HET ID in PDB>
53P

> <PDB ID(s) for Ligand-Target Complex>


> <PubChem CID of Ligand>
71731823

> <PubChem SID of Ligand>
103929883

> <ChEBI ID of Ligand>


> <ChEMBL ID of Ligand>
CHEMBL3286830

> <DrugBank ID of Ligand>


> <IUPHAR_GRAC ID of Ligand>


> <KEGG ID of Ligand>


> <ZINC ID of Ligand>
ZINC33891516

> <Number of Protein Chains in Target (bigger than 1 implies a multichain complex)>
1

> <BindingDB Target Chain Sequence>
MGAIGLLWLLPLLLSTAAVGSGMGTGQRAGSPAAGPPLQPREPLSYSRLQRKSLAVDFVVPSLFRVYARDLLLPPSSSELKAGRPEARGSLALDCAPLLRLLGPAPGVSWTAGSPAPAEARTLSRVLKGGSVRKLRRAKQLVLELGEEAILEGCVGPPGEAAVGLLQFNLSELFSWWIRQGEGRLRIRLMPEKKASEVGREGRLSAAIRASQPRLLFQIFGTGHSSLESPTNMPSPSPDYFTWNLTWIMKDSFPFLSHRSRYGLECSFDFPCELEYSPPLHDLRNQSWSWRRIPSEEASQMDLLDGPGAERSKEMPRGSFLLLNTSADSKHTILSPWMRSSSEHCTLAVSVHRHLQPSGRYIAQLLPHNEAAREILLMPTPGKHGWTVLQGRIGRPDNPFRVALEYISSGNRSLSAVDFFALKNCSEGTSPGSKMALQSSFTCWNGTVLQLGQACDFHQDCAQGEDESQMCRKLPVGFYCNFEDGFCGWTQGTLSPHTPQWQVRTLKDARFQDHQDHALLLSTTDVPASESATVTSATFPAPIKSSPCELRMSWLIRGVLRGNVSLVLVENKTGKEQGRMVWHVAAYEGLSLWQWMVLPLLDVSDRFWLQMVAWWGQGSRAIVAFDNISISLDCYLTISGEDKILQNTAPKSRNLFERNPNKELKPGENSPRQTPIFDPTVHWLFTTCGASGPHGPTQAQCNNAYQNSNLSVEVGSEGPLKGIQIWKVPATDTYSISGYGAAGGKGGKNTMMRSHGVSVLGIFNLEKDDMLYILVGQQGEDACPSTNQLIQKVCIGENNVIEEEIRVNRSVHEWAGGGGGGGGATYVFKMKDGVPVPLIIAAGGGGRAYGAKTDTFHPERLENNSSVLGLNGNSGAAGGGGGWNDNTSLLWAGKSLQEGATGGHSCPQAMKKWGWETRGGFGGGGGGCSSGGGGGGYIGGNAASNNDPEMDGEDGVSFISPLGILYTPALKVMEGHGEVNIKHYLNCSHCEVDECHMDPESHKVICFCDHGTVLAEDGVSCIVSPTPEPHLPLSLILSVVTSALVAALVLAFSGIMIVYRRKHQELQAMQMELQSPEYKLSKLRTSTIMTDYNPNYCFAGKTSSISDLKEVPRKNITLIRGLGHGAFGEVYEGQVSGMPNDPSPLQVAVKTLPEVCSEQDELDFLMEALIISKFNHQNIVRCIGVSLQSLPRFILLELMAGGDLKSFLRETRPRPSQPSSLAMLDLLHVARDIACGCQYLEENHFIHRDIAARNCLLTCPGPGRVAKIGDFGMARDIYRASYYRKGGCAMLPVKWMPPEAFMEGIFTSKTDTWSFGVLLWEIFSLGYMPYPSKSNQEVLEFVTSGGRMDPPKNCPGPVYRIMTQCWQHQPEDRPNFAIILERIEYCTQDPDVINTALPIEYGPLVEEEEKVPVRPKDPEGVPPLLVSQQAKREEERSPAAPPPLPTTSSGKAAKKPTAAEISVRVPRGPAVEGGHVNMAFSQSNPPSELHKVHGSRNKPTSLWNPTYGSWFTEKPTKKNNPIAKKEPHDRGNLGLEGSCTVPPNVATGRLPGASLLLEPSSLTANMKEVPLFRLRHFPCGNVNYGYQQQGLPLEAATAPGAGHYEDTILKSKNSMNQPGP

> <PDB ID(s) of Target Chain>
2XB7,2XBA,3AOX,5FTO,5FTQ,6E0R,6EBW,6EDL,6MX8,7JY4,7JYR,7JYS,7JYT,7LS0,7MZW,7MZY,7N00,7NX3,7NX4,8ARJ

> <UniProt (SwissProt) Recommended Name of Target Chain>
ALK tyrosine kinase receptor

> <UniProt (SwissProt) Entry Name of Target Chain>
ALK_HUMAN

> <UniProt (SwissProt) Primary ID of Target Chain>
Q9UM73

> <UniProt (SwissProt) Secondary ID(s) of Target Chain>
A6P4T4 A6P4V4 Q4ZFX9 Q53QQ6 Q53RZ4 Q59FI3 Q9Y4K6

> <UniProt (SwissProt) Alternative ID(s) of Target Chain>


> <UniProt (TrEMBL) Submitted Name of Target Chain>


> <UniProt (TrEMBL) Entry Name of Target Chain>


> <UniProt (TrEMBL) Primary ID of Target Chain>


> <UniProt (TrEMBL) Secondary ID(s) of Target Chain>


> <UniProt (TrEMBL) Alternative ID(s) of Target Chain>


$$$$
 
  Mrv0541 11221423062D          

 30 33  0  0  0  0            999 V2000
   -0.9640    1.6774    0.0000 C   0  0  0  0  0  0  0  0  0  0  0  0
   -0.9653    0.8499    0.0000 C   0  0  0  0  0  0  0  0  0  0  0  0
   -0.2523    0.4370    0.0000 C   0  0  0  0  0  0  0  0  0  0  0  0
    0.4669    0.8504    0.0000 C   0  0  0  0  0  0  0  0  0  0  0  0
    0.4637    1.6815    0.0000 C   0  0  0  0  0  0  0  0  0  0  0  0
   -0.2543    2.0903    0.0000 N   0  0  0  0  0  0  0  0  0  0  0  0
   -1.6814    0.4425    0.0000 C   0  0  0  0  0  0  0  0  0  0  0  0
   -2.4724    0.6769    0.0000 C   0  0  0  0  0  0  0  0  0  0  0  0
   -2.9398   -0.0030    0.0000 N   0  0  0  0  0  0  0  0  0  0  0  0
   -2.4376   -0.6576    0.0000 N   0  0  0  0  0  0  0  0  0  0  0  0
   -1.6599   -0.3821    0.0000 C   0  0  0  0  0  0  0  0  0  0  0  0
   -3.7651   -0.0266    0.0000 C   0  0  0  0  0  0  0  0  0  0  0  0
   -4.1948    0.6787    0.0000 C   0  0  0  0  0  0  0  0  0  0  0  0
   -5.0160    0.6593    0.0000 C   0  0  0  0  0  0  0  0  0  0  0  0
   -5.4137   -0.0639    0.0000 N   0  0  0  0  0  0  0  0  0  0  0  0
   -4.9839   -0.7692    0.0000 C   0  0  0  0  0  0  0  0  0  0  0  0
   -4.1564   -0.7513    0.0000 C   0  0  0  0  0  0  0  0  0  0  0  0
    1.1762    2.0975    0.0000 N   0  0  0  0  0  0  0  0  0  0  0  0
    1.1818    0.4386    0.0000 O   0  0  0  0  0  0  0  0  0  0  0  0
    1.1825   -0.3864    0.0000 C   0  0  1  0  0  0  0  0  0  0  0  0
    1.8973   -0.7982    0.0000 C   0  0  0  0  0  0  0  0  0  0  0  0
    0.4685   -0.7996    0.0000 C   0  0  0  0  0  0  0  0  0  0  0  0
    1.8953   -1.6235    0.0000 C   0  0  0  0  0  0  0  0  0  0  0  0
    2.6093   -2.0354    0.0000 C   0  0  0  0  0  0  0  0  0  0  0  0
    3.3244   -1.6221    0.0000 C   0  0  0  0  0  0  0  0  0  0  0  0
    3.3210   -0.7930    0.0000 C   0  0  0  0  0  0  0  0  0  0  0  0
    2.6065   -0.3849    0.0000 C   0  0  0  0  0  0  0  0  0  0  0  0
    2.6028    0.4401    0.0000 Cl  0  0  0  0  0  0  0  0  0  0  0  0
    4.0337   -0.3773    0.0000 F   0  0  0  0  0  0  0  0  0  0  0  0
    1.1806   -2.0354    0.0000 Cl  0  0  0  0  0  0  0  0  0  0  0  0
 12 17  1  0  0  0  0
 13 14  1  0  0  0  0
 14 15  1  0  0  0  0
 15 16  1  0  0  0  0
 16 17  1  0  0  0  0
  9 12  1  0  0  0  0
  4  5  2  0  0  0  0
  5 18  1  0  0  0  0
  2  3  2  0  0  0  0
  4 19  1  0  0  0  0
  8  9  1  0  0  0  0
 20 19  1  0  0  0  0
  9 10  1  0  0  0  0
 20 21  1  0  0  0  0
 10 11  2  0  0  0  0
 20 22  1  1  0  0  0
 11  7  1  0  0  0  0
 21 23  2  0  0  0  0
  2  7  1  0  0  0  0
 23 24  1  0  0  0  0
 12 13  1  0  0  0  0
 24 25  2  0  0  0  0
  5  6  1  0  0  0  0
 25 26  1  0  0  0  0
  6  1  2  0  0  0  0
 26 27  2  0  0  0  0
 27 21  1  0  0  0  0
  7  8  2  0  0  0  0
 27 28  1  0  0  0  0
  1  2  1  0  0  0  0
 26 29  1  0  0  0  0
  3  4  1  0  0  0  0
 23 30  1  0  0  0  0
M  END
> <From>
www.bindingDB.org

> <BindingDB Reactant_set_id>
50103678

> <Ligand InChI>
InChI=1S/C21H22Cl2FN5O/c1-12(19-16(22)2-3-17(24)20(19)23)30-18-8-13(9-27-21(18)25)14-10-28-29(11-14)15-4-6-26-7-5-15/h2-3,8-12,15,26H,4-7H2,1H3,(H2,25,27)/t12-/m1/s1

> <Ligand InChI Key>
KTEIFNKAUNYNJU-GFCCVEGCSA-N

> <BindingDB MonomerID>
50306682

> <BindingDB Ligand Name>
(R)-3-(1-(2,6-dichloro-3-fluorophenyl)ethoxy)-5-(1-(piperidin-4-yl)-1H-pyrazol-4-yl)pyridin-2-amine::3-(2,6-dichloro-3-fluorobenzyloxy)-5-(1-(piperidin-4-yl)-1H-pyrazol-4-yl)pyridin-2-amine::3-[(1R)-1-(2,6-dichloro-3-fluorophenyl)ethoxy]-5-(1-piperidin-4-yl-1H-pyrazol-4-yl)pyridin-2-amine::CHEMBL601719::CRIZOTINIB::PF-2341066::US10370379, Crizotinib::US10543199, Compound Crizotinib::US10780082, Compound Crizotinib::US11059827, Compound Crizotinib::US11517561, Compound Crizotinib::US9126941, PF-2341066::US9199944, Crizotinib::US9226923, Crizotinib

> <Target Name>
ALK tyrosine kinase receptor

> <Target Source Organism According to Curator or DataSource>
Homo sapiens

> <Ki (nM)>


> <IC50 (nM)>
 80

> <Kd (nM)>


> <EC50 (nM)>


> <kon (M-1-s-1)>


> <koff (s-1)>


> <pH>


> <Temp C>


> <Curation/DataSource>
ChEMBL

> <Article DOI>
10.1021/jm500261q

> <BindingDB Entry DOI>
10.7270/Q2K35W68

> <PMID>
24819116

> <PubChem AID>


> <Patent Number>


> <Authors>
Johnson, TW; Richardson, PF; Bailey, S; Brooun, A; Burke, BJ; Collins, MR; Cui, JJ; Deal, JG; Deng, YL; Dinh, D; Engstrom, LD; He, M; Hoffman, J; Hoffman, RL; Huang, Q; Kania, RS; Kath, JC; Lam, H; Lam, JL; Le, PT; Lingardo, L; Liu, W; McTigue, M; Palmer, CL; Sach, NW; Smeal, T; Smith, GL; Stewart, AE; Timofeevski, S; Zhu, H; Zhu, J; Zou, HY; Edwards, MP

> <Date of publication>
6/12/2014

> <Date in BindingDB>
2/11/2015

> <Institution>
Pfizer Inc

> <Link to Ligand in BindingDB>
http://www.bindingdb.org/bind/chemsearch/marvin/MolStructure.jsp?monomerid=50306682

> <Link to Ligand-Target Pair in BindingDB>
http://www.bindingdb.org/jsp/dbsearch/PrimarySearch_ki.jsp?energyterm=kJ/mole&tag=pol&polymerid=5809&target=ALK+tyrosine+kinase+receptor&column=ki&startPg=0&Increment=50&submit=Search

> <Link to Ligand-Target Pair in BindingDB>
http://www.bindingdb.org/jsp/dbsearch/PrimarySearch_ki.jsp?energyterm=kJ/mole&tag=r21&monomerid=50306682&enzyme=ALK+tyrosine+kinase+receptor&column=ki&startPg=0&Increment=50&submit=Search

> <Ligand HET ID in PDB>
VGH

> <PDB ID(s) for Ligand-Target Complex>
2YFX,5AAA,5AAC,5AAB,4ANS,4ANQ,2XP2,2WGJ,3ZBF,4C9W,6IMZ

> <PubChem CID of Ligand>
11626560

> <PubChem SID of Ligand>
104161043

> <ChEBI ID of Ligand>
64310

> <ChEMBL ID of Ligand>
CHEMBL601719

> <DrugBank ID of Ligand>
DB08700

> <IUPHAR_GRAC ID of Ligand>
4903

> <KEGG ID of Ligand>


> <ZINC ID of Ligand>
ZINC35902489

> <Number of Protein Chains in Target (bigger than 1 implies a multichain complex)>
1

> <BindingDB Target Chain Sequence>
MGAIGLLWLLPLLLSTAAVGSGMGTGQRAGSPAAGPPLQPREPLSYSRLQRKSLAVDFVVPSLFRVYARDLLLPPSSSELKAGRPEARGSLALDCAPLLRLLGPAPGVSWTAGSPAPAEARTLSRVLKGGSVRKLRRAKQLVLELGEEAILEGCVGPPGEAAVGLLQFNLSELFSWWIRQGEGRLRIRLMPEKKASEVGREGRLSAAIRASQPRLLFQIFGTGHSSLESPTNMPSPSPDYFTWNLTWIMKDSFPFLSHRSRYGLECSFDFPCELEYSPPLHDLRNQSWSWRRIPSEEASQMDLLDGPGAERSKEMPRGSFLLLNTSADSKHTILSPWMRSSSEHCTLAVSVHRHLQPSGRYIAQLLPHNEAAREILLMPTPGKHGWTVLQGRIGRPDNPFRVALEYISSGNRSLSAVDFFALKNCSEGTSPGSKMALQSSFTCWNGTVLQLGQACDFHQDCAQGEDESQMCRKLPVGFYCNFEDGFCGWTQGTLSPHTPQWQVRTLKDARFQDHQDHALLLSTTDVPASESATVTSATFPAPIKSSPCELRMSWLIRGVLRGNVSLVLVENKTGKEQGRMVWHVAAYEGLSLWQWMVLPLLDVSDRFWLQMVAWWGQGSRAIVAFDNISISLDCYLTISGEDKILQNTAPKSRNLFERNPNKELKPGENSPRQTPIFDPTVHWLFTTCGASGPHGPTQAQCNNAYQNSNLSVEVGSEGPLKGIQIWKVPATDTYSISGYGAAGGKGGKNTMMRSHGVSVLGIFNLEKDDMLYILVGQQGEDACPSTNQLIQKVCIGENNVIEEEIRVNRSVHEWAGGGGGGGGATYVFKMKDGVPVPLIIAAGGGGRAYGAKTDTFHPERLENNSSVLGLNGNSGAAGGGGGWNDNTSLLWAGKSLQEGATGGHSCPQAMKKWGWETRGGFGGGGGGCSSGGGGGGYIGGNAASNNDPEMDGEDGVSFISPLGILYTPALKVMEGHGEVNIKHYLNCSHCEVDECHMDPESHKVICFCDHGTVLAEDGVSCIVSPTPEPHLPLSLILSVVTSALVAALVLAFSGIMIVYRRKHQELQAMQMELQSPEYKLSKLRTSTIMTDYNPNYCFAGKTSSISDLKEVPRKNITLIRGLGHGAFGEVYEGQVSGMPNDPSPLQVAVKTLPEVCSEQDELDFLMEALIISKFNHQNIVRCIGVSLQSLPRFILLELMAGGDLKSFLRETRPRPSQPSSLAMLDLLHVARDIACGCQYLEENHFIHRDIAARNCLLTCPGPGRVAKIGDFGMARDIYRASYYRKGGCAMLPVKWMPPEAFMEGIFTSKTDTWSFGVLLWEIFSLGYMPYPSKSNQEVLEFVTSGGRMDPPKNCPGPVYRIMTQCWQHQPEDRPNFAIILERIEYCTQDPDVINTALPIEYGPLVEEEEKVPVRPKDPEGVPPLLVSQQAKREEERSPAAPPPLPTTSSGKAAKKPTAAEISVRVPRGPAVEGGHVNMAFSQSNPPSELHKVHGSRNKPTSLWNPTYGSWFTEKPTKKNNPIAKKEPHDRGNLGLEGSCTVPPNVATGRLPGASLLLEPSSLTANMKEVPLFRLRHFPCGNVNYGYQQQGLPLEAATAPGAGHYEDTILKSKNSMNQPGP

> <PDB ID(s) of Target Chain>
2XB7,2XBA,3AOX,5FTO,5FTQ,6E0R,6EBW,6EDL,6MX8,7JY4,7JYR,7JYS,7JYT,7LS0,7MZW,7MZY,7N00,7NX3,7NX4,8ARJ

> <UniProt (SwissProt) Recommended Name of Target Chain>
ALK tyrosine kinase receptor

> <UniProt (SwissProt) Entry Name of Target Chain>
ALK_HUMAN

> <UniProt (SwissProt) Primary ID of Target Chain>
Q9UM73

> <UniProt (SwissProt) Secondary ID(s) of Target Chain>
A6P4T4 A6P4V4 Q4ZFX9 Q53QQ6 Q53RZ4 Q59FI3 Q9Y4K6

> <UniProt (SwissProt) Alternative ID(s) of Target Chain>


> <UniProt (TrEMBL) Submitted Name of Target Chain>


> <UniProt (TrEMBL) Entry Name of Target Chain>


> <UniProt (TrEMBL) Primary ID of Target Chain>


> <UniProt (TrEMBL) Secondary ID(s) of Target Chain>


> <UniProt (TrEMBL) Alternative ID(s) of Target Chain>


$$$$

  SciTegic09261414532D

 26 29  0  0  0  0            999 V2000
    6.2373  -10.4220    0.0000 C   0  0
    4.7875  -11.2145    0.0000 C   0  0
    4.8069  -10.3886    0.0000 C   0  0
    5.5317   -9.9924    0.0000 C   0  0
    6.2180  -11.2479    0.0000 C   0  0
    5.4932  -11.6441    0.0000 N   0  0
    4.0627  -11.6107    0.0000 N   0  0
    4.1012   -9.9590    0.0000 O   0  0
    6.9780   -9.2013    0.0000 C   0  0
    6.9597  -10.0258    0.0000 C   0  0
    7.7381  -10.2980    0.0000 N   0  0
    8.2376   -9.6417    0.0000 N   0  0
    7.7678   -8.9641    0.0000 C   0  0
    7.9755  -11.0880    0.0000 C   0  0
    3.3774  -10.3546    0.0000 C   0  0
    2.6727   -9.9255    0.0000 C   0  0
    2.6968   -9.1007    0.0000 C   0  0
    1.9930   -8.6716    0.0000 C   0  0
    1.2681   -9.0673    0.0000 C   0  0
    1.2514   -9.8965    0.0000 C   0  0
    1.9559  -10.3217    0.0000 C   0  0
    3.4219   -8.7071    0.0000 O   0  0
    4.1252   -9.1384    0.0000 C   0  0
    4.8503   -8.7450    0.0000 C   0  0
    5.5537   -9.1762    0.0000 C   0  0
    0.5289  -10.2946    0.0000 F   0  0
  2  3  1  0
  3  4  2  0
  4  1  1  0
  1  5  2  0
  5  6  1  0
  2  6  2  0
  2  7  1  0
  3  8  1  0
  1 10  1  0
  9 10  2  0
 10 11  1  0
 11 12  1  0
 12 13  2  0
 13  9  1  0
 11 14  1  0
  8 15  1  0
 15 16  1  0
 16 17  2  0
 17 18  1  0
 18 19  2  0
 19 20  1  0
 20 21  2  0
 21 16  1  0
 17 22  1  0
 22 23  1  0
 23 24  1  0
 24 25  1  0
 25  9  1  0
 20 26  1  0
M  END
> <From>
www.bindingDB.org

> <BindingDB Reactant_set_id>
50103689

> <Ligand InChI>
InChI=1S/C19H19FN4O2/c1-24-18-12(10-23-24)3-2-6-25-16-5-4-15(20)7-14(16)11-26-17-8-13(18)9-22-19(17)21/h4-5,7-10H,2-3,6,11H2,1H3,(H2,21,22)

> <Ligand InChI Key>
LMZGMLCWYMKZIR-UHFFFAOYSA-N

> <BindingDB MonomerID>
50018826

> <BindingDB Ligand Name>
CHEMBL3286816

> <Target Name>
ALK tyrosine kinase receptor

> <Target Source Organism According to Curator or DataSource>
Homo sapiens

> <Ki (nM)>


> <IC50 (nM)>
 86

> <Kd (nM)>


> <EC50 (nM)>


> <kon (M-1-s-1)>


> <koff (s-1)>


> <pH>


> <Temp C>


> <Curation/DataSource>
ChEMBL

> <Article DOI>
10.1021/jm500261q

> <BindingDB Entry DOI>
10.7270/Q2K35W68

> <PMID>
24819116

> <PubChem AID>


> <Patent Number>


> <Authors>
Johnson, TW; Richardson, PF; Bailey, S; Brooun, A; Burke, BJ; Collins, MR; Cui, JJ; Deal, JG; Deng, YL; Dinh, D; Engstrom, LD; He, M; Hoffman, J; Hoffman, RL; Huang, Q; Kania, RS; Kath, JC; Lam, H; Lam, JL; Le, PT; Lingardo, L; Liu, W; McTigue, M; Palmer, CL; Sach, NW; Smeal, T; Smith, GL; Stewart, AE; Timofeevski, S; Zhu, H; Zhu, J; Zou, HY; Edwards, MP

> <Date of publication>
6/12/2014

> <Date in BindingDB>
2/11/2015

> <Institution>
Pfizer Inc

> <Link to Ligand in BindingDB>
http://www.bindingdb.org/bind/chemsearch/marvin/MolStructure.jsp?monomerid=50018826

> <Link to Ligand-Target Pair in BindingDB>
http://www.bindingdb.org/jsp/dbsearch/PrimarySearch_ki.jsp?energyterm=kJ/mole&tag=pol&polymerid=5809&target=ALK+tyrosine+kinase+receptor&column=ki&startPg=0&Increment=50&submit=Search

> <Link to Ligand-Target Pair in BindingDB>
http://www.bindingdb.org/jsp/dbsearch/PrimarySearch_ki.jsp?energyterm=kJ/mole&tag=r21&monomerid=50018826&enzyme=ALK+tyrosine+kinase+receptor&column=ki&startPg=0&Increment=50&submit=Search

> <Ligand HET ID in PDB>


> <PDB ID(s) for Ligand-Target Complex>


> <PubChem CID of Ligand>
71732092

> <PubChem SID of Ligand>
103929879

> <ChEBI ID of Ligand>


> <ChEMBL ID of Ligand>
CHEMBL3286816

> <DrugBank ID of Ligand>


> <IUPHAR_GRAC ID of Ligand>


> <KEGG ID of Ligand>


> <ZINC ID of Ligand>
ZINC33891511

> <Number of Protein Chains in Target (bigger than 1 implies a multichain complex)>
1

> <BindingDB Target Chain Sequence>
MGAIGLLWLLPLLLSTAAVGSGMGTGQRAGSPAAGPPLQPREPLSYSRLQRKSLAVDFVVPSLFRVYARDLLLPPSSSELKAGRPEARGSLALDCAPLLRLLGPAPGVSWTAGSPAPAEARTLSRVLKGGSVRKLRRAKQLVLELGEEAILEGCVGPPGEAAVGLLQFNLSELFSWWIRQGEGRLRIRLMPEKKASEVGREGRLSAAIRASQPRLLFQIFGTGHSSLESPTNMPSPSPDYFTWNLTWIMKDSFPFLSHRSRYGLECSFDFPCELEYSPPLHDLRNQSWSWRRIPSEEASQMDLLDGPGAERSKEMPRGSFLLLNTSADSKHTILSPWMRSSSEHCTLAVSVHRHLQPSGRYIAQLLPHNEAAREILLMPTPGKHGWTVLQGRIGRPDNPFRVALEYISSGNRSLSAVDFFALKNCSEGTSPGSKMALQSSFTCWNGTVLQLGQACDFHQDCAQGEDESQMCRKLPVGFYCNFEDGFCGWTQGTLSPHTPQWQVRTLKDARFQDHQDHALLLSTTDVPASESATVTSATFPAPIKSSPCELRMSWLIRGVLRGNVSLVLVENKTGKEQGRMVWHVAAYEGLSLWQWMVLPLLDVSDRFWLQMVAWWGQGSRAIVAFDNISISLDCYLTISGEDKILQNTAPKSRNLFERNPNKELKPGENSPRQTPIFDPTVHWLFTTCGASGPHGPTQAQCNNAYQNSNLSVEVGSEGPLKGIQIWKVPATDTYSISGYGAAGGKGGKNTMMRSHGVSVLGIFNLEKDDMLYILVGQQGEDACPSTNQLIQKVCIGENNVIEEEIRVNRSVHEWAGGGGGGGGATYVFKMKDGVPVPLIIAAGGGGRAYGAKTDTFHPERLENNSSVLGLNGNSGAAGGGGGWNDNTSLLWAGKSLQEGATGGHSCPQAMKKWGWETRGGFGGGGGGCSSGGGGGGYIGGNAASNNDPEMDGEDGVSFISPLGILYTPALKVMEGHGEVNIKHYLNCSHCEVDECHMDPESHKVICFCDHGTVLAEDGVSCIVSPTPEPHLPLSLILSVVTSALVAALVLAFSGIMIVYRRKHQELQAMQMELQSPEYKLSKLRTSTIMTDYNPNYCFAGKTSSISDLKEVPRKNITLIRGLGHGAFGEVYEGQVSGMPNDPSPLQVAVKTLPEVCSEQDELDFLMEALIISKFNHQNIVRCIGVSLQSLPRFILLELMAGGDLKSFLRETRPRPSQPSSLAMLDLLHVARDIACGCQYLEENHFIHRDIAARNCLLTCPGPGRVAKIGDFGMARDIYRASYYRKGGCAMLPVKWMPPEAFMEGIFTSKTDTWSFGVLLWEIFSLGYMPYPSKSNQEVLEFVTSGGRMDPPKNCPGPVYRIMTQCWQHQPEDRPNFAIILERIEYCTQDPDVINTALPIEYGPLVEEEEKVPVRPKDPEGVPPLLVSQQAKREEERSPAAPPPLPTTSSGKAAKKPTAAEISVRVPRGPAVEGGHVNMAFSQSNPPSELHKVHGSRNKPTSLWNPTYGSWFTEKPTKKNNPIAKKEPHDRGNLGLEGSCTVPPNVATGRLPGASLLLEPSSLTANMKEVPLFRLRHFPCGNVNYGYQQQGLPLEAATAPGAGHYEDTILKSKNSMNQPGP

> <PDB ID(s) of Target Chain>
2XB7,2XBA,3AOX,5FTO,5FTQ,6E0R,6EBW,6EDL,6MX8,7JY4,7JYR,7JYS,7JYT,7LS0,7MZW,7MZY,7N00,7NX3,7NX4,8ARJ

> <UniProt (SwissProt) Recommended Name of Target Chain>
ALK tyrosine kinase receptor

> <UniProt (SwissProt) Entry Name of Target Chain>
ALK_HUMAN

> <UniProt (SwissProt) Primary ID of Target Chain>
Q9UM73

> <UniProt (SwissProt) Secondary ID(s) of Target Chain>
A6P4T4 A6P4V4 Q4ZFX9 Q53QQ6 Q53RZ4 Q59FI3 Q9Y4K6

> <UniProt (SwissProt) Alternative ID(s) of Target Chain>


> <UniProt (TrEMBL) Submitted Name of Target Chain>


> <UniProt (TrEMBL) Entry Name of Target Chain>


> <UniProt (TrEMBL) Primary ID of Target Chain>


> <UniProt (TrEMBL) Secondary ID(s) of Target Chain>


> <UniProt (TrEMBL) Alternative ID(s) of Target Chain>


$$$$

  SciTegic09261414532D

 25 27  0  0  0  0            999 V2000
   13.1536   -5.7019    0.0000 C   0  0
   13.1727   -4.8838    0.0000 C   0  0
   13.8908   -4.4913    0.0000 C   0  0
   14.5897   -4.9169    0.0000 C   0  0
   14.5706   -5.7350    0.0000 C   0  0
   13.8525   -6.1275    0.0000 N   0  0
   12.4356   -6.0944    0.0000 N   0  0
   15.3077   -4.5244    0.0000 C   0  0
   12.4738   -4.4582    0.0000 O   0  0
   12.4932   -3.6399    0.0000 C   0  0  2  0  0  0
   13.2305   -3.2858    0.0000 C   0  0
   11.7905   -3.2206    0.0000 C   0  0
   11.0760   -3.6195    0.0000 C   0  0
   10.3733   -3.2003    0.0000 C   0  0
   10.3850   -2.3820    0.0000 C   0  0
   11.0995   -1.9831    0.0000 C   0  0
   11.8022   -2.4024    0.0000 C   0  0
    9.6588   -3.5992    0.0000 F   0  0
   12.5157   -2.0040    0.0000 O   0  0
   12.5275   -1.1869    0.0000 C   0  0
   16.0418   -4.8759    0.0000 N   0  0
   16.6034   -4.2807    0.0000 N   0  0
   16.2109   -3.5626    0.0000 N   0  0
   15.4068   -3.7141    0.0000 C   0  0
   16.1913   -5.6793    0.0000 C   0  0
  1  2  1  0
  2  3  2  0
  3  4  1  0
  4  5  2  0
  5  6  1  0
  1  6  2  0
  1  7  1  0
  4  8  1  0
 10 11  1  1
  9 10  1  0
 12 13  1  0
 13 14  2  0
 14 15  1  0
 15 16  2  0
 16 17  1  0
 12 17  2  0
 14 18  1  0
 10 12  1  0
  2  9  1  0
 17 19  1  0
 19 20  1  0
  8 21  1  0
 21 22  1  0
 22 23  2  0
 23 24  1  0
 24  8  2  0
 21 25  1  0
M  END
> <From>
www.bindingDB.org

> <BindingDB Reactant_set_id>
50103680

> <Ligand InChI>
InChI=1S/C17H18FN5O2/c1-10(13-7-12(18)4-5-15(13)24-3)25-16-6-11(8-20-17(16)19)14-9-21-22-23(14)2/h4-10H,1-3H3,(H2,19,20)/t10-/m1/s1

> <Ligand InChI Key>
GXUFIECYEKHMLD-SNVBAGLBSA-N

> <BindingDB MonomerID>
50018816

> <BindingDB Ligand Name>
CHEMBL3286808

> <Target Name>
ALK tyrosine kinase receptor

> <Target Source Organism According to Curator or DataSource>
Homo sapiens

> <Ki (nM)>


> <IC50 (nM)>
 95

> <Kd (nM)>


> <EC50 (nM)>


> <kon (M-1-s-1)>


> <koff (s-1)>


> <pH>


> <Temp C>


> <Curation/DataSource>
ChEMBL

> <Article DOI>
10.1021/jm500261q

> <BindingDB Entry DOI>
10.7270/Q2K35W68

> <PMID>
24819116

> <PubChem AID>


> <Patent Number>


> <Authors>
Johnson, TW; Richardson, PF; Bailey, S; Brooun, A; Burke, BJ; Collins, MR; Cui, JJ; Deal, JG; Deng, YL; Dinh, D; Engstrom, LD; He, M; Hoffman, J; Hoffman, RL; Huang, Q; Kania, RS; Kath, JC; Lam, H; Lam, JL; Le, PT; Lingardo, L; Liu, W; McTigue, M; Palmer, CL; Sach, NW; Smeal, T; Smith, GL; Stewart, AE; Timofeevski, S; Zhu, H; Zhu, J; Zou, HY; Edwards, MP

> <Date of publication>
6/12/2014

> <Date in BindingDB>
2/11/2015

> <Institution>
Pfizer Inc

> <Link to Ligand in BindingDB>
http://www.bindingdb.org/bind/chemsearch/marvin/MolStructure.jsp?monomerid=50018816

> <Link to Ligand-Target Pair in BindingDB>
http://www.bindingdb.org/jsp/dbsearch/PrimarySearch_ki.jsp?energyterm=kJ/mole&tag=pol&polymerid=5809&target=ALK+tyrosine+kinase+receptor&column=ki&startPg=0&Increment=50&submit=Search

> <Link to Ligand-Target Pair in BindingDB>
http://www.bindingdb.org/jsp/dbsearch/PrimarySearch_ki.jsp?energyterm=kJ/mole&tag=r21&monomerid=50018816&enzyme=ALK+tyrosine+kinase+receptor&column=ki&startPg=0&Increment=50&submit=Search

> <Ligand HET ID in PDB>
3U9

> <PDB ID(s) for Ligand-Target Complex>
4CNH

> <PubChem CID of Ligand>
67467779

> <PubChem SID of Ligand>
103929869

> <ChEBI ID of Ligand>


> <ChEMBL ID of Ligand>
CHEMBL3286808

> <DrugBank ID of Ligand>


> <IUPHAR_GRAC ID of Ligand>


> <KEGG ID of Ligand>


> <ZINC ID of Ligand>
ZINC36080037

> <Number of Protein Chains in Target (bigger than 1 implies a multichain complex)>
1

> <BindingDB Target Chain Sequence>
MGAIGLLWLLPLLLSTAAVGSGMGTGQRAGSPAAGPPLQPREPLSYSRLQRKSLAVDFVVPSLFRVYARDLLLPPSSSELKAGRPEARGSLALDCAPLLRLLGPAPGVSWTAGSPAPAEARTLSRVLKGGSVRKLRRAKQLVLELGEEAILEGCVGPPGEAAVGLLQFNLSELFSWWIRQGEGRLRIRLMPEKKASEVGREGRLSAAIRASQPRLLFQIFGTGHSSLESPTNMPSPSPDYFTWNLTWIMKDSFPFLSHRSRYGLECSFDFPCELEYSPPLHDLRNQSWSWRRIPSEEASQMDLLDGPGAERSKEMPRGSFLLLNTSADSKHTILSPWMRSSSEHCTLAVSVHRHLQPSGRYIAQLLPHNEAAREILLMPTPGKHGWTVLQGRIGRPDNPFRVALEYISSGNRSLSAVDFFALKNCSEGTSPGSKMALQSSFTCWNGTVLQLGQACDFHQDCAQGEDESQMCRKLPVGFYCNFEDGFCGWTQGTLSPHTPQWQVRTLKDARFQDHQDHALLLSTTDVPASESATVTSATFPAPIKSSPCELRMSWLIRGVLRGNVSLVLVENKTGKEQGRMVWHVAAYEGLSLWQWMVLPLLDVSDRFWLQMVAWWGQGSRAIVAFDNISISLDCYLTISGEDKILQNTAPKSRNLFERNPNKELKPGENSPRQTPIFDPTVHWLFTTCGASGPHGPTQAQCNNAYQNSNLSVEVGSEGPLKGIQIWKVPATDTYSISGYGAAGGKGGKNTMMRSHGVSVLGIFNLEKDDMLYILVGQQGEDACPSTNQLIQKVCIGENNVIEEEIRVNRSVHEWAGGGGGGGGATYVFKMKDGVPVPLIIAAGGGGRAYGAKTDTFHPERLENNSSVLGLNGNSGAAGGGGGWNDNTSLLWAGKSLQEGATGGHSCPQAMKKWGWETRGGFGGGGGGCSSGGGGGGYIGGNAASNNDPEMDGEDGVSFISPLGILYTPALKVMEGHGEVNIKHYLNCSHCEVDECHMDPESHKVICFCDHGTVLAEDGVSCIVSPTPEPHLPLSLILSVVTSALVAALVLAFSGIMIVYRRKHQELQAMQMELQSPEYKLSKLRTSTIMTDYNPNYCFAGKTSSISDLKEVPRKNITLIRGLGHGAFGEVYEGQVSGMPNDPSPLQVAVKTLPEVCSEQDELDFLMEALIISKFNHQNIVRCIGVSLQSLPRFILLELMAGGDLKSFLRETRPRPSQPSSLAMLDLLHVARDIACGCQYLEENHFIHRDIAARNCLLTCPGPGRVAKIGDFGMARDIYRASYYRKGGCAMLPVKWMPPEAFMEGIFTSKTDTWSFGVLLWEIFSLGYMPYPSKSNQEVLEFVTSGGRMDPPKNCPGPVYRIMTQCWQHQPEDRPNFAIILERIEYCTQDPDVINTALPIEYGPLVEEEEKVPVRPKDPEGVPPLLVSQQAKREEERSPAAPPPLPTTSSGKAAKKPTAAEISVRVPRGPAVEGGHVNMAFSQSNPPSELHKVHGSRNKPTSLWNPTYGSWFTEKPTKKNNPIAKKEPHDRGNLGLEGSCTVPPNVATGRLPGASLLLEPSSLTANMKEVPLFRLRHFPCGNVNYGYQQQGLPLEAATAPGAGHYEDTILKSKNSMNQPGP

> <PDB ID(s) of Target Chain>
2XB7,2XBA,3AOX,5FTO,5FTQ,6E0R,6EBW,6EDL,6MX8,7JY4,7JYR,7JYS,7JYT,7LS0,7MZW,7MZY,7N00,7NX3,7NX4,8ARJ

> <UniProt (SwissProt) Recommended Name of Target Chain>
ALK tyrosine kinase receptor

> <UniProt (SwissProt) Entry Name of Target Chain>
ALK_HUMAN

> <UniProt (SwissProt) Primary ID of Target Chain>
Q9UM73

> <UniProt (SwissProt) Secondary ID(s) of Target Chain>
A6P4T4 A6P4V4 Q4ZFX9 Q53QQ6 Q53RZ4 Q59FI3 Q9Y4K6

> <UniProt (SwissProt) Alternative ID(s) of Target Chain>


> <UniProt (TrEMBL) Submitted Name of Target Chain>


> <UniProt (TrEMBL) Entry Name of Target Chain>


> <UniProt (TrEMBL) Primary ID of Target Chain>


> <UniProt (TrEMBL) Secondary ID(s) of Target Chain>


> <UniProt (TrEMBL) Alternative ID(s) of Target Chain>


$$$$

  SciTegic09261414532D

 28 31  0  0  0  0            999 V2000
    4.7766   -4.0166    0.0000 O   0  0
    4.0760   -4.4003    0.0000 C   0  0
    3.3904   -3.9835    0.0000 C   0  0
    3.4142   -3.1829    0.0000 C   0  0
    2.7295   -2.7662    0.0000 C   0  0
    2.0279   -3.1499    0.0000 C   0  0
    2.0114   -3.9547    0.0000 C   0  0
    2.6968   -4.3677    0.0000 C   0  0
    4.1201   -2.8014    0.0000 C   0  0
    1.3081   -4.3409    0.0000 F   0  0
    7.5693   -3.2770    0.0000 C   0  0
    5.4438   -4.4326    0.0000 C   0  0
    6.8511   -4.4671    0.0000 C   0  0
    5.4440   -5.2355    0.0000 C   0  0
    6.1687   -4.0497    0.0000 C   0  0
    6.8320   -5.2686    0.0000 C   0  0
    6.1305   -5.6528    0.0000 N   0  0
    4.7383   -5.6197    0.0000 N   0  0
    7.5543   -4.0828    0.0000 C   0  0
    8.3089   -4.3441    0.0000 C   0  0
    8.7954   -3.7065    0.0000 N   0  0
    8.3382   -3.0517    0.0000 N   0  0
    8.5405   -5.1092    0.0000 C   0  0
    4.8160   -3.2297    0.0000 O   0  0
    4.1431   -1.9845    0.0000 N   0  0
    4.8620   -1.5960    0.0000 C   0  0
    3.4472   -1.5562    0.0000 C   0  0
    8.6093   -2.2808    0.0000 C   0  0
 12  1  1  0
  1  2  1  0
  2  3  1  0
  3  4  2  0
  4  5  1  0
  5  6  2  0
  6  7  1  0
  7  8  2  0
  8  3  1  0
  4  9  1  0
  7 10  1  0
 14 12  1  0
 12 15  2  0
 15 13  1  0
 13 16  2  0
 16 17  1  0
 14 17  2  0
 14 18  1  0
 13 19  1  0
 11 19  2  0
 19 20  1  0
 20 21  2  0
 21 22  1  0
 22 11  1  0
 20 23  1  0
  9 24  2  0
  9 25  1  0
 25 26  1  0
 25 27  1  0
 26 11  1  0
 22 28  1  0
M  END
> <From>
www.bindingDB.org

> <BindingDB Reactant_set_id>
50103576

> <Ligand InChI>
InChI=1S/C20H20FN5O2/c1-11-18-12-7-17(19(22)23-8-12)28-10-13-6-14(21)4-5-15(13)20(27)25(2)9-16(18)26(3)24-11/h4-8H,9-10H2,1-3H3,(H2,22,23)

> <Ligand InChI Key>
KTZLYUTXTQABMN-UHFFFAOYSA-N

> <BindingDB MonomerID>
50018832

> <BindingDB Ligand Name>
CHEMBL3286822

> <Target Name>
ALK tyrosine kinase receptor

> <Target Source Organism According to Curator or DataSource>
Homo sapiens

> <Ki (nM)>


> <IC50 (nM)>
 97

> <Kd (nM)>


> <EC50 (nM)>


> <kon (M-1-s-1)>


> <koff (s-1)>


> <pH>


> <Temp C>


> <Curation/DataSource>
ChEMBL

> <Article DOI>
10.1021/jm500261q

> <BindingDB Entry DOI>
10.7270/Q2K35W68

> <PMID>
24819116

> <PubChem AID>


> <Patent Number>


> <Authors>
Johnson, TW; Richardson, PF; Bailey, S; Brooun, A; Burke, BJ; Collins, MR; Cui, JJ; Deal, JG; Deng, YL; Dinh, D; Engstrom, LD; He, M; Hoffman, J; Hoffman, RL; Huang, Q; Kania, RS; Kath, JC; Lam, H; Lam, JL; Le, PT; Lingardo, L; Liu, W; McTigue, M; Palmer, CL; Sach, NW; Smeal, T; Smith, GL; Stewart, AE; Timofeevski, S; Zhu, H; Zhu, J; Zou, HY; Edwards, MP

> <Date of publication>
6/12/2014

> <Date in BindingDB>
2/11/2015

> <Institution>
Pfizer Inc

> <Link to Ligand in BindingDB>
http://www.bindingdb.org/bind/chemsearch/marvin/MolStructure.jsp?monomerid=50018832

> <Link to Ligand-Target Pair in BindingDB>
http://www.bindingdb.org/jsp/dbsearch/PrimarySearch_ki.jsp?energyterm=kJ/mole&tag=pol&polymerid=5809&target=ALK+tyrosine+kinase+receptor&column=ki&startPg=0&Increment=50&submit=Search

> <Link to Ligand-Target Pair in BindingDB>
http://www.bindingdb.org/jsp/dbsearch/PrimarySearch_ki.jsp?energyterm=kJ/mole&tag=r21&monomerid=50018832&enzyme=ALK+tyrosine+kinase+receptor&column=ki&startPg=0&Increment=50&submit=Search

> <Ligand HET ID in PDB>


> <PDB ID(s) for Ligand-Target Complex>


> <PubChem CID of Ligand>
71731827

> <PubChem SID of Ligand>
103929885

> <ChEBI ID of Ligand>


> <ChEMBL ID of Ligand>
CHEMBL3286822

> <DrugBank ID of Ligand>


> <IUPHAR_GRAC ID of Ligand>


> <KEGG ID of Ligand>


> <ZINC ID of Ligand>
ZINC34216070

> <Number of Protein Chains in Target (bigger than 1 implies a multichain complex)>
1

> <BindingDB Target Chain Sequence>
MGAIGLLWLLPLLLSTAAVGSGMGTGQRAGSPAAGPPLQPREPLSYSRLQRKSLAVDFVVPSLFRVYARDLLLPPSSSELKAGRPEARGSLALDCAPLLRLLGPAPGVSWTAGSPAPAEARTLSRVLKGGSVRKLRRAKQLVLELGEEAILEGCVGPPGEAAVGLLQFNLSELFSWWIRQGEGRLRIRLMPEKKASEVGREGRLSAAIRASQPRLLFQIFGTGHSSLESPTNMPSPSPDYFTWNLTWIMKDSFPFLSHRSRYGLECSFDFPCELEYSPPLHDLRNQSWSWRRIPSEEASQMDLLDGPGAERSKEMPRGSFLLLNTSADSKHTILSPWMRSSSEHCTLAVSVHRHLQPSGRYIAQLLPHNEAAREILLMPTPGKHGWTVLQGRIGRPDNPFRVALEYISSGNRSLSAVDFFALKNCSEGTSPGSKMALQSSFTCWNGTVLQLGQACDFHQDCAQGEDESQMCRKLPVGFYCNFEDGFCGWTQGTLSPHTPQWQVRTLKDARFQDHQDHALLLSTTDVPASESATVTSATFPAPIKSSPCELRMSWLIRGVLRGNVSLVLVENKTGKEQGRMVWHVAAYEGLSLWQWMVLPLLDVSDRFWLQMVAWWGQGSRAIVAFDNISISLDCYLTISGEDKILQNTAPKSRNLFERNPNKELKPGENSPRQTPIFDPTVHWLFTTCGASGPHGPTQAQCNNAYQNSNLSVEVGSEGPLKGIQIWKVPATDTYSISGYGAAGGKGGKNTMMRSHGVSVLGIFNLEKDDMLYILVGQQGEDACPSTNQLIQKVCIGENNVIEEEIRVNRSVHEWAGGGGGGGGATYVFKMKDGVPVPLIIAAGGGGRAYGAKTDTFHPERLENNSSVLGLNGNSGAAGGGGGWNDNTSLLWAGKSLQEGATGGHSCPQAMKKWGWETRGGFGGGGGGCSSGGGGGGYIGGNAASNNDPEMDGEDGVSFISPLGILYTPALKVMEGHGEVNIKHYLNCSHCEVDECHMDPESHKVICFCDHGTVLAEDGVSCIVSPTPEPHLPLSLILSVVTSALVAALVLAFSGIMIVYRRKHQELQAMQMELQSPEYKLSKLRTSTIMTDYNPNYCFAGKTSSISDLKEVPRKNITLIRGLGHGAFGEVYEGQVSGMPNDPSPLQVAVKTLPEVCSEQDELDFLMEALIISKFNHQNIVRCIGVSLQSLPRFILLELMAGGDLKSFLRETRPRPSQPSSLAMLDLLHVARDIACGCQYLEENHFIHRDIAARNCLLTCPGPGRVAKIGDFGMARDIYRASYYRKGGCAMLPVKWMPPEAFMEGIFTSKTDTWSFGVLLWEIFSLGYMPYPSKSNQEVLEFVTSGGRMDPPKNCPGPVYRIMTQCWQHQPEDRPNFAIILERIEYCTQDPDVINTALPIEYGPLVEEEEKVPVRPKDPEGVPPLLVSQQAKREEERSPAAPPPLPTTSSGKAAKKPTAAEISVRVPRGPAVEGGHVNMAFSQSNPPSELHKVHGSRNKPTSLWNPTYGSWFTEKPTKKNNPIAKKEPHDRGNLGLEGSCTVPPNVATGRLPGASLLLEPSSLTANMKEVPLFRLRHFPCGNVNYGYQQQGLPLEAATAPGAGHYEDTILKSKNSMNQPGP

> <PDB ID(s) of Target Chain>
2XB7,2XBA,3AOX,5FTO,5FTQ,6E0R,6EBW,6EDL,6MX8,7JY4,7JYR,7JYS,7JYT,7LS0,7MZW,7MZY,7N00,7NX3,7NX4,8ARJ

> <UniProt (SwissProt) Recommended Name of Target Chain>
ALK tyrosine kinase receptor

> <UniProt (SwissProt) Entry Name of Target Chain>
ALK_HUMAN

> <UniProt (SwissProt) Primary ID of Target Chain>
Q9UM73

> <UniProt (SwissProt) Secondary ID(s) of Target Chain>
A6P4T4 A6P4V4 Q4ZFX9 Q53QQ6 Q53RZ4 Q59FI3 Q9Y4K6

> <UniProt (SwissProt) Alternative ID(s) of Target Chain>


> <UniProt (TrEMBL) Submitted Name of Target Chain>


> <UniProt (TrEMBL) Entry Name of Target Chain>


> <UniProt (TrEMBL) Primary ID of Target Chain>


> <UniProt (TrEMBL) Secondary ID(s) of Target Chain>


> <UniProt (TrEMBL) Alternative ID(s) of Target Chain>


$$$$

  SciTegic09261414532D

 26 29  0  0  0  0            999 V2000
    5.3241   -4.5702    0.0000 C   0  0
    3.8880   -5.3552    0.0000 C   0  0
    3.9071   -4.5371    0.0000 C   0  0
    4.6251   -4.1446    0.0000 C   0  0
    5.3049   -5.3883    0.0000 C   0  0
    4.5869   -5.7808    0.0000 N   0  0
    3.1700   -5.7477    0.0000 N   0  0
    3.2082   -4.1115    0.0000 O   0  0
    3.2276   -3.2932    0.0000 C   0  0
    2.5248   -2.8739    0.0000 C   0  0
    1.8104   -3.2728    0.0000 C   0  0
    1.1077   -2.8536    0.0000 C   0  0
    1.1194   -2.0354    0.0000 C   0  0
    1.8339   -1.6364    0.0000 C   0  0
    2.5366   -2.0557    0.0000 C   0  0
    0.3932   -3.2525    0.0000 F   0  0
    6.0578   -3.3611    0.0000 C   0  0
    6.0396   -4.1777    0.0000 C   0  0
    6.8107   -4.4473    0.0000 C   0  0
    7.3054   -3.7973    0.0000 N   0  0
    6.8400   -3.1260    0.0000 N   0  0
    3.2501   -1.6573    0.0000 O   0  0
    3.9519   -2.0760    0.0000 C   0  0
    4.6654   -1.6776    0.0000 C   0  0
    7.0465   -5.2289    0.0000 C   0  0
    7.2817   -6.0116    0.0000 N   0  0
  2  3  1  0
  3  4  2  0
  4  1  1  0
  1  5  2  0
  5  6  1  0
  2  6  2  0
  2  7  1  0
  8  9  1  0
 10 11  1  0
 11 12  2  0
 12 13  1  0
 13 14  2  0
 14 15  1  0
 10 15  2  0
 12 16  1  0
  9 10  1  0
  3  8  1  0
  1 18  1  0
 17 18  1  0
 18 19  2  0
 19 20  1  0
 20 21  1  0
 21 17  2  0
 15 22  1  0
 22 23  1  0
 23 24  1  0
 24 17  1  0
 25 26  3  0
 19 25  1  0
M  END
> <From>
www.bindingDB.org

> <BindingDB Reactant_set_id>
50103710

> <Ligand InChI>
InChI=1S/C18H14FN5O2/c19-12-1-2-15-11(5-12)9-26-16-6-10(8-22-18(16)21)17-13(3-4-25-15)23-24-14(17)7-20/h1-2,5-6,8H,3-4,9H2,(H2,21,22)(H,23,24)

> <Ligand InChI Key>
JPFKGTKMTHTBAD-UHFFFAOYSA-N

> <BindingDB MonomerID>
50018824

> <BindingDB Ligand Name>
CHEMBL3286814

> <Target Name>
ALK tyrosine kinase receptor

> <Target Source Organism According to Curator or DataSource>
Homo sapiens

> <Ki (nM)>


> <IC50 (nM)>
 101

> <Kd (nM)>


> <EC50 (nM)>


> <kon (M-1-s-1)>


> <koff (s-1)>


> <pH>


> <Temp C>


> <Curation/DataSource>
ChEMBL

> <Article DOI>
10.1021/jm500261q

> <BindingDB Entry DOI>
10.7270/Q2K35W68

> <PMID>
24819116

> <PubChem AID>


> <Patent Number>


> <Authors>
Johnson, TW; Richardson, PF; Bailey, S; Brooun, A; Burke, BJ; Collins, MR; Cui, JJ; Deal, JG; Deng, YL; Dinh, D; Engstrom, LD; He, M; Hoffman, J; Hoffman, RL; Huang, Q; Kania, RS; Kath, JC; Lam, H; Lam, JL; Le, PT; Lingardo, L; Liu, W; McTigue, M; Palmer, CL; Sach, NW; Smeal, T; Smith, GL; Stewart, AE; Timofeevski, S; Zhu, H; Zhu, J; Zou, HY; Edwards, MP

> <Date of publication>
6/12/2014

> <Date in BindingDB>
2/11/2015

> <Institution>
Pfizer Inc

> <Link to Ligand in BindingDB>
http://www.bindingdb.org/bind/chemsearch/marvin/MolStructure.jsp?monomerid=50018824

> <Link to Ligand-Target Pair in BindingDB>
http://www.bindingdb.org/jsp/dbsearch/PrimarySearch_ki.jsp?energyterm=kJ/mole&tag=pol&polymerid=5809&target=ALK+tyrosine+kinase+receptor&column=ki&startPg=0&Increment=50&submit=Search

> <Link to Ligand-Target Pair in BindingDB>
http://www.bindingdb.org/jsp/dbsearch/PrimarySearch_ki.jsp?energyterm=kJ/mole&tag=r21&monomerid=50018824&enzyme=ALK+tyrosine+kinase+receptor&column=ki&startPg=0&Increment=50&submit=Search

> <Ligand HET ID in PDB>


> <PDB ID(s) for Ligand-Target Complex>


> <PubChem CID of Ligand>
71732095

> <PubChem SID of Ligand>
103929877

> <ChEBI ID of Ligand>


> <ChEMBL ID of Ligand>
CHEMBL3286814

> <DrugBank ID of Ligand>


> <IUPHAR_GRAC ID of Ligand>


> <KEGG ID of Ligand>


> <ZINC ID of Ligand>
ZINC33891530

> <Number of Protein Chains in Target (bigger than 1 implies a multichain complex)>
1

> <BindingDB Target Chain Sequence>
MGAIGLLWLLPLLLSTAAVGSGMGTGQRAGSPAAGPPLQPREPLSYSRLQRKSLAVDFVVPSLFRVYARDLLLPPSSSELKAGRPEARGSLALDCAPLLRLLGPAPGVSWTAGSPAPAEARTLSRVLKGGSVRKLRRAKQLVLELGEEAILEGCVGPPGEAAVGLLQFNLSELFSWWIRQGEGRLRIRLMPEKKASEVGREGRLSAAIRASQPRLLFQIFGTGHSSLESPTNMPSPSPDYFTWNLTWIMKDSFPFLSHRSRYGLECSFDFPCELEYSPPLHDLRNQSWSWRRIPSEEASQMDLLDGPGAERSKEMPRGSFLLLNTSADSKHTILSPWMRSSSEHCTLAVSVHRHLQPSGRYIAQLLPHNEAAREILLMPTPGKHGWTVLQGRIGRPDNPFRVALEYISSGNRSLSAVDFFALKNCSEGTSPGSKMALQSSFTCWNGTVLQLGQACDFHQDCAQGEDESQMCRKLPVGFYCNFEDGFCGWTQGTLSPHTPQWQVRTLKDARFQDHQDHALLLSTTDVPASESATVTSATFPAPIKSSPCELRMSWLIRGVLRGNVSLVLVENKTGKEQGRMVWHVAAYEGLSLWQWMVLPLLDVSDRFWLQMVAWWGQGSRAIVAFDNISISLDCYLTISGEDKILQNTAPKSRNLFERNPNKELKPGENSPRQTPIFDPTVHWLFTTCGASGPHGPTQAQCNNAYQNSNLSVEVGSEGPLKGIQIWKVPATDTYSISGYGAAGGKGGKNTMMRSHGVSVLGIFNLEKDDMLYILVGQQGEDACPSTNQLIQKVCIGENNVIEEEIRVNRSVHEWAGGGGGGGGATYVFKMKDGVPVPLIIAAGGGGRAYGAKTDTFHPERLENNSSVLGLNGNSGAAGGGGGWNDNTSLLWAGKSLQEGATGGHSCPQAMKKWGWETRGGFGGGGGGCSSGGGGGGYIGGNAASNNDPEMDGEDGVSFISPLGILYTPALKVMEGHGEVNIKHYLNCSHCEVDECHMDPESHKVICFCDHGTVLAEDGVSCIVSPTPEPHLPLSLILSVVTSALVAALVLAFSGIMIVYRRKHQELQAMQMELQSPEYKLSKLRTSTIMTDYNPNYCFAGKTSSISDLKEVPRKNITLIRGLGHGAFGEVYEGQVSGMPNDPSPLQVAVKTLPEVCSEQDELDFLMEALIISKFNHQNIVRCIGVSLQSLPRFILLELMAGGDLKSFLRETRPRPSQPSSLAMLDLLHVARDIACGCQYLEENHFIHRDIAARNCLLTCPGPGRVAKIGDFGMARDIYRASYYRKGGCAMLPVKWMPPEAFMEGIFTSKTDTWSFGVLLWEIFSLGYMPYPSKSNQEVLEFVTSGGRMDPPKNCPGPVYRIMTQCWQHQPEDRPNFAIILERIEYCTQDPDVINTALPIEYGPLVEEEEKVPVRPKDPEGVPPLLVSQQAKREEERSPAAPPPLPTTSSGKAAKKPTAAEISVRVPRGPAVEGGHVNMAFSQSNPPSELHKVHGSRNKPTSLWNPTYGSWFTEKPTKKNNPIAKKEPHDRGNLGLEGSCTVPPNVATGRLPGASLLLEPSSLTANMKEVPLFRLRHFPCGNVNYGYQQQGLPLEAATAPGAGHYEDTILKSKNSMNQPGP

> <PDB ID(s) of Target Chain>
2XB7,2XBA,3AOX,5FTO,5FTQ,6E0R,6EBW,6EDL,6MX8,7JY4,7JYR,7JYS,7JYT,7LS0,7MZW,7MZY,7N00,7NX3,7NX4,8ARJ

> <UniProt (SwissProt) Recommended Name of Target Chain>
ALK tyrosine kinase receptor

> <UniProt (SwissProt) Entry Name of Target Chain>
ALK_HUMAN

> <UniProt (SwissProt) Primary ID of Target Chain>
Q9UM73

> <UniProt (SwissProt) Secondary ID(s) of Target Chain>
A6P4T4 A6P4V4 Q4ZFX9 Q53QQ6 Q53RZ4 Q59FI3 Q9Y4K6

> <UniProt (SwissProt) Alternative ID(s) of Target Chain>


> <UniProt (TrEMBL) Submitted Name of Target Chain>


> <UniProt (TrEMBL) Entry Name of Target Chain>


> <UniProt (TrEMBL) Primary ID of Target Chain>


> <UniProt (TrEMBL) Secondary ID(s) of Target Chain>


> <UniProt (TrEMBL) Alternative ID(s) of Target Chain>


$$$$

  SciTegic09261414532D

 27 30  0  0  0  0            999 V2000
   11.4214   -4.2807    0.0000 O   0  0
   10.7043   -4.6727    0.0000 C   0  0
   10.0064   -4.2477    0.0000 C   0  0
   10.0302   -3.4305    0.0000 C   0  0
    9.3330   -3.0056    0.0000 C   0  0
    8.6150   -3.3976    0.0000 C   0  0
    8.5984   -4.2188    0.0000 C   0  0
    9.2962   -4.6401    0.0000 C   0  0
   10.7484   -3.0408    0.0000 O   0  0
   11.4451   -3.4680    0.0000 C   0  0
   12.1634   -3.0782    0.0000 C   0  0
   12.8600   -3.5054    0.0000 C   0  0
    7.8827   -4.6133    0.0000 F   0  0
   14.2678   -3.5288    0.0000 C   0  0
   12.1010   -4.7050    0.0000 C   0  0
   13.5372   -4.7395    0.0000 C   0  0
   12.1012   -5.5244    0.0000 C   0  0
   12.8383   -4.3139    0.0000 C   0  0
   13.5181   -5.5575    0.0000 C   0  0
   12.8001   -5.9500    0.0000 N   0  0
   11.3832   -5.9169    0.0000 N   0  0
   14.2528   -4.3469    0.0000 C   0  0
   15.0239   -4.6165    0.0000 C   0  0
   15.5186   -3.9665    0.0000 N   0  0
   15.0532   -3.2952    0.0000 N   0  0
   15.2596   -5.3982    0.0000 C   0  0
   15.4948   -6.1808    0.0000 N   0  0
 15  1  1  0
  1  2  1  0
  2  3  1  0
  3  4  2  0
  4  5  1  0
  5  6  2  0
  6  7  1  0
  7  8  2  0
  8  3  1  0
  4  9  1  0
  9 10  1  0
 10 11  1  0
 11 12  1  0
 12 14  1  0
  7 13  1  0
 17 15  1  0
 15 18  2  0
 18 16  1  0
 16 19  2  0
 19 20  1  0
 17 20  2  0
 17 21  1  0
 16 22  1  0
 14 22  1  0
 22 23  2  0
 23 24  1  0
 24 25  1  0
 25 14  2  0
 26 27  3  0
 23 26  1  0
M  END
> <From>
www.bindingDB.org

> <BindingDB Reactant_set_id>
50103711

> <Ligand InChI>
InChI=1S/C19H16FN5O2/c20-13-3-4-16-12(6-13)10-27-17-7-11(9-23-19(17)22)18-14(2-1-5-26-16)24-25-15(18)8-21/h3-4,6-7,9H,1-2,5,10H2,(H2,22,23)(H,24,25)

> <Ligand InChI Key>
IXNVIDNGIIKHPP-UHFFFAOYSA-N

> <BindingDB MonomerID>
50018825

> <BindingDB Ligand Name>
CHEMBL3286815

> <Target Name>
ALK tyrosine kinase receptor

> <Target Source Organism According to Curator or DataSource>
Homo sapiens

> <Ki (nM)>


> <IC50 (nM)>
 112

> <Kd (nM)>


> <EC50 (nM)>


> <kon (M-1-s-1)>


> <koff (s-1)>


> <pH>


> <Temp C>


> <Curation/DataSource>
ChEMBL

> <Article DOI>
10.1021/jm500261q

> <BindingDB Entry DOI>
10.7270/Q2K35W68

> <PMID>
24819116

> <PubChem AID>


> <Patent Number>


> <Authors>
Johnson, TW; Richardson, PF; Bailey, S; Brooun, A; Burke, BJ; Collins, MR; Cui, JJ; Deal, JG; Deng, YL; Dinh, D; Engstrom, LD; He, M; Hoffman, J; Hoffman, RL; Huang, Q; Kania, RS; Kath, JC; Lam, H; Lam, JL; Le, PT; Lingardo, L; Liu, W; McTigue, M; Palmer, CL; Sach, NW; Smeal, T; Smith, GL; Stewart, AE; Timofeevski, S; Zhu, H; Zhu, J; Zou, HY; Edwards, MP

> <Date of publication>
6/12/2014

> <Date in BindingDB>
2/11/2015

> <Institution>
Pfizer Inc

> <Link to Ligand in BindingDB>
http://www.bindingdb.org/bind/chemsearch/marvin/MolStructure.jsp?monomerid=50018825

> <Link to Ligand-Target Pair in BindingDB>
http://www.bindingdb.org/jsp/dbsearch/PrimarySearch_ki.jsp?energyterm=kJ/mole&tag=pol&polymerid=5809&target=ALK+tyrosine+kinase+receptor&column=ki&startPg=0&Increment=50&submit=Search

> <Link to Ligand-Target Pair in BindingDB>
http://www.bindingdb.org/jsp/dbsearch/PrimarySearch_ki.jsp?energyterm=kJ/mole&tag=r21&monomerid=50018825&enzyme=ALK+tyrosine+kinase+receptor&column=ki&startPg=0&Increment=50&submit=Search

> <Ligand HET ID in PDB>


> <PDB ID(s) for Ligand-Target Complex>


> <PubChem CID of Ligand>
71732094

> <PubChem SID of Ligand>
103929878

> <ChEBI ID of Ligand>


> <ChEMBL ID of Ligand>
CHEMBL3286815

> <DrugBank ID of Ligand>


> <IUPHAR_GRAC ID of Ligand>


> <KEGG ID of Ligand>


> <ZINC ID of Ligand>
ZINC33891532

> <Number of Protein Chains in Target (bigger than 1 implies a multichain complex)>
1

> <BindingDB Target Chain Sequence>
MGAIGLLWLLPLLLSTAAVGSGMGTGQRAGSPAAGPPLQPREPLSYSRLQRKSLAVDFVVPSLFRVYARDLLLPPSSSELKAGRPEARGSLALDCAPLLRLLGPAPGVSWTAGSPAPAEARTLSRVLKGGSVRKLRRAKQLVLELGEEAILEGCVGPPGEAAVGLLQFNLSELFSWWIRQGEGRLRIRLMPEKKASEVGREGRLSAAIRASQPRLLFQIFGTGHSSLESPTNMPSPSPDYFTWNLTWIMKDSFPFLSHRSRYGLECSFDFPCELEYSPPLHDLRNQSWSWRRIPSEEASQMDLLDGPGAERSKEMPRGSFLLLNTSADSKHTILSPWMRSSSEHCTLAVSVHRHLQPSGRYIAQLLPHNEAAREILLMPTPGKHGWTVLQGRIGRPDNPFRVALEYISSGNRSLSAVDFFALKNCSEGTSPGSKMALQSSFTCWNGTVLQLGQACDFHQDCAQGEDESQMCRKLPVGFYCNFEDGFCGWTQGTLSPHTPQWQVRTLKDARFQDHQDHALLLSTTDVPASESATVTSATFPAPIKSSPCELRMSWLIRGVLRGNVSLVLVENKTGKEQGRMVWHVAAYEGLSLWQWMVLPLLDVSDRFWLQMVAWWGQGSRAIVAFDNISISLDCYLTISGEDKILQNTAPKSRNLFERNPNKELKPGENSPRQTPIFDPTVHWLFTTCGASGPHGPTQAQCNNAYQNSNLSVEVGSEGPLKGIQIWKVPATDTYSISGYGAAGGKGGKNTMMRSHGVSVLGIFNLEKDDMLYILVGQQGEDACPSTNQLIQKVCIGENNVIEEEIRVNRSVHEWAGGGGGGGGATYVFKMKDGVPVPLIIAAGGGGRAYGAKTDTFHPERLENNSSVLGLNGNSGAAGGGGGWNDNTSLLWAGKSLQEGATGGHSCPQAMKKWGWETRGGFGGGGGGCSSGGGGGGYIGGNAASNNDPEMDGEDGVSFISPLGILYTPALKVMEGHGEVNIKHYLNCSHCEVDECHMDPESHKVICFCDHGTVLAEDGVSCIVSPTPEPHLPLSLILSVVTSALVAALVLAFSGIMIVYRRKHQELQAMQMELQSPEYKLSKLRTSTIMTDYNPNYCFAGKTSSISDLKEVPRKNITLIRGLGHGAFGEVYEGQVSGMPNDPSPLQVAVKTLPEVCSEQDELDFLMEALIISKFNHQNIVRCIGVSLQSLPRFILLELMAGGDLKSFLRETRPRPSQPSSLAMLDLLHVARDIACGCQYLEENHFIHRDIAARNCLLTCPGPGRVAKIGDFGMARDIYRASYYRKGGCAMLPVKWMPPEAFMEGIFTSKTDTWSFGVLLWEIFSLGYMPYPSKSNQEVLEFVTSGGRMDPPKNCPGPVYRIMTQCWQHQPEDRPNFAIILERIEYCTQDPDVINTALPIEYGPLVEEEEKVPVRPKDPEGVPPLLVSQQAKREEERSPAAPPPLPTTSSGKAAKKPTAAEISVRVPRGPAVEGGHVNMAFSQSNPPSELHKVHGSRNKPTSLWNPTYGSWFTEKPTKKNNPIAKKEPHDRGNLGLEGSCTVPPNVATGRLPGASLLLEPSSLTANMKEVPLFRLRHFPCGNVNYGYQQQGLPLEAATAPGAGHYEDTILKSKNSMNQPGP

> <PDB ID(s) of Target Chain>
2XB7,2XBA,3AOX,5FTO,5FTQ,6E0R,6EBW,6EDL,6MX8,7JY4,7JYR,7JYS,7JYT,7LS0,7MZW,7MZY,7N00,7NX3,7NX4,8ARJ

> <UniProt (SwissProt) Recommended Name of Target Chain>
ALK tyrosine kinase receptor

> <UniProt (SwissProt) Entry Name of Target Chain>
ALK_HUMAN

> <UniProt (SwissProt) Primary ID of Target Chain>
Q9UM73

> <UniProt (SwissProt) Secondary ID(s) of Target Chain>
A6P4T4 A6P4V4 Q4ZFX9 Q53QQ6 Q53RZ4 Q59FI3 Q9Y4K6

> <UniProt (SwissProt) Alternative ID(s) of Target Chain>


> <UniProt (TrEMBL) Submitted Name of Target Chain>


> <UniProt (TrEMBL) Entry Name of Target Chain>


> <UniProt (TrEMBL) Primary ID of Target Chain>


> <UniProt (TrEMBL) Secondary ID(s) of Target Chain>


> <UniProt (TrEMBL) Alternative ID(s) of Target Chain>


$$$$

  SciTegic09261414532D

 28 30  0  0  0  0            999 V2000
    5.9843  -11.3234    0.0000 C   0  0
    6.7184  -11.6748    0.0000 C   0  0
    7.2800  -11.0797    0.0000 N   0  0
    6.8875  -10.3616    0.0000 N   0  0
    6.0833  -10.5131    0.0000 C   0  0
    5.2622  -11.7145    0.0000 C   0  0
    3.8261  -12.4994    0.0000 C   0  0
    3.8452  -11.6814    0.0000 C   0  0
    4.5632  -11.2889    0.0000 C   0  0
    5.2430  -12.5325    0.0000 C   0  0
    4.5250  -12.9250    0.0000 N   0  0
    3.1081  -12.8919    0.0000 N   0  0
    3.1463  -11.2558    0.0000 O   0  0
    3.1657  -10.4374    0.0000 C   0  0  2  0  0  0
    3.9030  -10.0833    0.0000 C   0  0
    2.4629  -10.0182    0.0000 C   0  0
    1.7485  -10.4171    0.0000 C   0  0
    1.0457   -9.9978    0.0000 C   0  0
    1.0575   -9.1796    0.0000 C   0  0
    1.7720   -8.7807    0.0000 C   0  0
    2.4747   -9.1999    0.0000 C   0  0
    0.3313  -10.3967    0.0000 F   0  0
    7.2371   -9.6230    0.0000 C   0  0
    6.8678  -12.4782    0.0000 C   0  0
    3.1882   -8.8016    0.0000 C   0  0
    3.8900   -9.2203    0.0000 O   0  0
    3.1999   -7.9844    0.0000 N   0  0
    2.4982   -7.5657    0.0000 C   0  0
  6  1  1  0
  1  2  1  0
  2  3  2  0
  3  4  1  0
  4  5  1  0
  5  1  2  0
  7  8  1  0
  8  9  2  0
  9  6  1  0
  6 10  2  0
 10 11  1  0
  7 11  2  0
  7 12  1  0
 14 15  1  1
 13 14  1  0
 16 17  1  0
 17 18  2  0
 18 19  1  0
 19 20  2  0
 20 21  1  0
 16 21  2  0
 18 22  1  0
 14 16  1  0
  8 13  1  0
  4 23  1  0
  2 24  1  0
 21 25  1  0
 25 26  2  0
 25 27  1  0
 27 28  1  0
M  END
> <From>
www.bindingDB.org

> <BindingDB Reactant_set_id>
50103683

> <Ligand InChI>
InChI=1S/C20H22FN5O2/c1-11-17(10-26(4)25-11)13-7-18(19(22)24-9-13)28-12(2)16-8-14(21)5-6-15(16)20(27)23-3/h5-10,12H,1-4H3,(H2,22,24)(H,23,27)/t12-/m1/s1

> <Ligand InChI Key>
WKWCRLSGXLINPN-GFCCVEGCSA-N

> <BindingDB MonomerID>
50018819

> <BindingDB Ligand Name>
CHEMBL3286809

> <Target Name>
ALK tyrosine kinase receptor

> <Target Source Organism According to Curator or DataSource>
Homo sapiens

> <Ki (nM)>


> <IC50 (nM)>
 116

> <Kd (nM)>


> <EC50 (nM)>


> <kon (M-1-s-1)>


> <koff (s-1)>


> <pH>


> <Temp C>


> <Curation/DataSource>
ChEMBL

> <Article DOI>
10.1021/jm500261q

> <BindingDB Entry DOI>
10.7270/Q2K35W68

> <PMID>
24819116

> <PubChem AID>


> <Patent Number>


> <Authors>
Johnson, TW; Richardson, PF; Bailey, S; Brooun, A; Burke, BJ; Collins, MR; Cui, JJ; Deal, JG; Deng, YL; Dinh, D; Engstrom, LD; He, M; Hoffman, J; Hoffman, RL; Huang, Q; Kania, RS; Kath, JC; Lam, H; Lam, JL; Le, PT; Lingardo, L; Liu, W; McTigue, M; Palmer, CL; Sach, NW; Smeal, T; Smith, GL; Stewart, AE; Timofeevski, S; Zhu, H; Zhu, J; Zou, HY; Edwards, MP

> <Date of publication>
6/12/2014

> <Date in BindingDB>
2/11/2015

> <Institution>
Pfizer Inc

> <Link to Ligand in BindingDB>
http://www.bindingdb.org/bind/chemsearch/marvin/MolStructure.jsp?monomerid=50018819

> <Link to Ligand-Target Pair in BindingDB>
http://www.bindingdb.org/jsp/dbsearch/PrimarySearch_ki.jsp?energyterm=kJ/mole&tag=pol&polymerid=5809&target=ALK+tyrosine+kinase+receptor&column=ki&startPg=0&Increment=50&submit=Search

> <Link to Ligand-Target Pair in BindingDB>
http://www.bindingdb.org/jsp/dbsearch/PrimarySearch_ki.jsp?energyterm=kJ/mole&tag=r21&monomerid=50018819&enzyme=ALK+tyrosine+kinase+receptor&column=ki&startPg=0&Increment=50&submit=Search

> <Ligand HET ID in PDB>


> <PDB ID(s) for Ligand-Target Complex>


> <PubChem CID of Ligand>
90644194

> <PubChem SID of Ligand>
103929872

> <ChEBI ID of Ligand>


> <ChEMBL ID of Ligand>
CHEMBL3286809

> <DrugBank ID of Ligand>


> <IUPHAR_GRAC ID of Ligand>


> <KEGG ID of Ligand>


> <ZINC ID of Ligand>
ZINC13364392

> <Number of Protein Chains in Target (bigger than 1 implies a multichain complex)>
1

> <BindingDB Target Chain Sequence>
MGAIGLLWLLPLLLSTAAVGSGMGTGQRAGSPAAGPPLQPREPLSYSRLQRKSLAVDFVVPSLFRVYARDLLLPPSSSELKAGRPEARGSLALDCAPLLRLLGPAPGVSWTAGSPAPAEARTLSRVLKGGSVRKLRRAKQLVLELGEEAILEGCVGPPGEAAVGLLQFNLSELFSWWIRQGEGRLRIRLMPEKKASEVGREGRLSAAIRASQPRLLFQIFGTGHSSLESPTNMPSPSPDYFTWNLTWIMKDSFPFLSHRSRYGLECSFDFPCELEYSPPLHDLRNQSWSWRRIPSEEASQMDLLDGPGAERSKEMPRGSFLLLNTSADSKHTILSPWMRSSSEHCTLAVSVHRHLQPSGRYIAQLLPHNEAAREILLMPTPGKHGWTVLQGRIGRPDNPFRVALEYISSGNRSLSAVDFFALKNCSEGTSPGSKMALQSSFTCWNGTVLQLGQACDFHQDCAQGEDESQMCRKLPVGFYCNFEDGFCGWTQGTLSPHTPQWQVRTLKDARFQDHQDHALLLSTTDVPASESATVTSATFPAPIKSSPCELRMSWLIRGVLRGNVSLVLVENKTGKEQGRMVWHVAAYEGLSLWQWMVLPLLDVSDRFWLQMVAWWGQGSRAIVAFDNISISLDCYLTISGEDKILQNTAPKSRNLFERNPNKELKPGENSPRQTPIFDPTVHWLFTTCGASGPHGPTQAQCNNAYQNSNLSVEVGSEGPLKGIQIWKVPATDTYSISGYGAAGGKGGKNTMMRSHGVSVLGIFNLEKDDMLYILVGQQGEDACPSTNQLIQKVCIGENNVIEEEIRVNRSVHEWAGGGGGGGGATYVFKMKDGVPVPLIIAAGGGGRAYGAKTDTFHPERLENNSSVLGLNGNSGAAGGGGGWNDNTSLLWAGKSLQEGATGGHSCPQAMKKWGWETRGGFGGGGGGCSSGGGGGGYIGGNAASNNDPEMDGEDGVSFISPLGILYTPALKVMEGHGEVNIKHYLNCSHCEVDECHMDPESHKVICFCDHGTVLAEDGVSCIVSPTPEPHLPLSLILSVVTSALVAALVLAFSGIMIVYRRKHQELQAMQMELQSPEYKLSKLRTSTIMTDYNPNYCFAGKTSSISDLKEVPRKNITLIRGLGHGAFGEVYEGQVSGMPNDPSPLQVAVKTLPEVCSEQDELDFLMEALIISKFNHQNIVRCIGVSLQSLPRFILLELMAGGDLKSFLRETRPRPSQPSSLAMLDLLHVARDIACGCQYLEENHFIHRDIAARNCLLTCPGPGRVAKIGDFGMARDIYRASYYRKGGCAMLPVKWMPPEAFMEGIFTSKTDTWSFGVLLWEIFSLGYMPYPSKSNQEVLEFVTSGGRMDPPKNCPGPVYRIMTQCWQHQPEDRPNFAIILERIEYCTQDPDVINTALPIEYGPLVEEEEKVPVRPKDPEGVPPLLVSQQAKREEERSPAAPPPLPTTSSGKAAKKPTAAEISVRVPRGPAVEGGHVNMAFSQSNPPSELHKVHGSRNKPTSLWNPTYGSWFTEKPTKKNNPIAKKEPHDRGNLGLEGSCTVPPNVATGRLPGASLLLEPSSLTANMKEVPLFRLRHFPCGNVNYGYQQQGLPLEAATAPGAGHYEDTILKSKNSMNQPGP

> <PDB ID(s) of Target Chain>
2XB7,2XBA,3AOX,5FTO,5FTQ,6E0R,6EBW,6EDL,6MX8,7JY4,7JYR,7JYS,7JYT,7LS0,7MZW,7MZY,7N00,7NX3,7NX4,8ARJ

> <UniProt (SwissProt) Recommended Name of Target Chain>
ALK tyrosine kinase receptor

> <UniProt (SwissProt) Entry Name of Target Chain>
ALK_HUMAN

> <UniProt (SwissProt) Primary ID of Target Chain>
Q9UM73

> <UniProt (SwissProt) Secondary ID(s) of Target Chain>
A6P4T4 A6P4V4 Q4ZFX9 Q53QQ6 Q53RZ4 Q59FI3 Q9Y4K6

> <UniProt (SwissProt) Alternative ID(s) of Target Chain>


> <UniProt (TrEMBL) Submitted Name of Target Chain>


> <UniProt (TrEMBL) Entry Name of Target Chain>


> <UniProt (TrEMBL) Primary ID of Target Chain>


> <UniProt (TrEMBL) Secondary ID(s) of Target Chain>


> <UniProt (TrEMBL) Alternative ID(s) of Target Chain>


$$$$

  SciTegic09261414532D

 29 32  0  0  0  0            999 V2000
   15.1954   -4.7994    0.0000 O   0  0
   14.4745   -5.1942    0.0000 C   0  0  2  0  0  0
   13.7691   -4.7653    0.0000 C   0  0
   13.7936   -3.9416    0.0000 C   0  0
   13.0891   -3.5129    0.0000 C   0  0
   12.3672   -3.9076    0.0000 C   0  0
   12.3503   -4.7357    0.0000 C   0  0
   13.0555   -5.1605    0.0000 C   0  0
   14.5199   -3.5491    0.0000 C   0  0
   11.6266   -5.1331    0.0000 F   0  0
   18.0689   -4.0384    0.0000 C   0  0
   15.8818   -5.2274    0.0000 C   0  0
   17.3299   -5.2628    0.0000 C   0  0
   15.8820   -6.0535    0.0000 C   0  0
   16.6278   -4.8334    0.0000 N   0  0
   17.3102   -6.0876    0.0000 C   0  0
   16.5884   -6.4829    0.0000 N   0  0
   15.1560   -6.4488    0.0000 N   0  0
   18.0534   -4.8675    0.0000 C   0  0
   18.8297   -5.1364    0.0000 C   0  0
   19.3303   -4.4802    0.0000 N   0  0
   18.8599   -3.8066    0.0000 N   0  0
   19.0680   -5.9236    0.0000 C   0  0
   14.0559   -5.9069    0.0000 C   0  0
   15.2360   -3.9898    0.0000 O   0  0
   14.5436   -2.7086    0.0000 N   0  0
   15.2832   -2.3088    0.0000 C   0  0
   13.8275   -2.2679    0.0000 C   0  0
   19.1388   -3.0134    0.0000 C   0  0
 12  1  1  0
  1  2  1  0
  2  3  1  0
  3  4  2  0
  4  5  1  0
  5  6  2  0
  6  7  1  0
  7  8  2  0
  8  3  1  0
  4  9  1  0
  7 10  1  0
 14 12  1  0
 12 15  2  0
 15 13  1  0
 13 16  2  0
 16 17  1  0
 14 17  2  0
 14 18  1  0
 13 19  1  0
 11 19  2  0
 19 20  1  0
 20 21  2  0
 21 22  1  0
 22 11  1  0
 20 23  1  0
  2 24  1  1
  9 25  2  0
  9 26  1  0
 26 27  1  0
 26 28  1  0
 27 11  1  0
 22 29  1  0
M  END
> <From>
www.bindingDB.org

> <BindingDB Reactant_set_id>
50103696

> <Ligand InChI>
InChI=1S/C20H21FN6O2/c1-10-17-15-8-23-18(22)19(24-15)29-11(2)14-7-12(21)5-6-13(14)20(28)26(3)9-16(17)27(4)25-10/h5-8,11H,9H2,1-4H3,(H2,22,23)/t11-/m0/s1

> <Ligand InChI Key>
BOSKQVUEUWJLFT-NSHDSACASA-N

> <BindingDB MonomerID>
50018834

> <BindingDB Ligand Name>
CHEMBL3286824

> <Target Name>
ALK tyrosine kinase receptor

> <Target Source Organism According to Curator or DataSource>
Homo sapiens

> <Ki (nM)>


> <IC50 (nM)>
 156

> <Kd (nM)>


> <EC50 (nM)>


> <kon (M-1-s-1)>


> <koff (s-1)>


> <pH>


> <Temp C>


> <Curation/DataSource>
ChEMBL

> <Article DOI>
10.1021/jm500261q

> <BindingDB Entry DOI>
10.7270/Q2K35W68

> <PMID>
24819116

> <PubChem AID>


> <Patent Number>


> <Authors>
Johnson, TW; Richardson, PF; Bailey, S; Brooun, A; Burke, BJ; Collins, MR; Cui, JJ; Deal, JG; Deng, YL; Dinh, D; Engstrom, LD; He, M; Hoffman, J; Hoffman, RL; Huang, Q; Kania, RS; Kath, JC; Lam, H; Lam, JL; Le, PT; Lingardo, L; Liu, W; McTigue, M; Palmer, CL; Sach, NW; Smeal, T; Smith, GL; Stewart, AE; Timofeevski, S; Zhu, H; Zhu, J; Zou, HY; Edwards, MP

> <Date of publication>
6/12/2014

> <Date in BindingDB>
2/11/2015

> <Institution>
Pfizer Inc

> <Link to Ligand in BindingDB>
http://www.bindingdb.org/bind/chemsearch/marvin/MolStructure.jsp?monomerid=50018834

> <Link to Ligand-Target Pair in BindingDB>
http://www.bindingdb.org/jsp/dbsearch/PrimarySearch_ki.jsp?energyterm=kJ/mole&tag=pol&polymerid=5809&target=ALK+tyrosine+kinase+receptor&column=ki&startPg=0&Increment=50&submit=Search

> <Link to Ligand-Target Pair in BindingDB>
http://www.bindingdb.org/jsp/dbsearch/PrimarySearch_ki.jsp?energyterm=kJ/mole&tag=r21&monomerid=50018834&enzyme=ALK+tyrosine+kinase+receptor&column=ki&startPg=0&Increment=50&submit=Search

> <Ligand HET ID in PDB>


> <PDB ID(s) for Ligand-Target Complex>


> <PubChem CID of Ligand>
90644200

> <PubChem SID of Ligand>
103929887

> <ChEBI ID of Ligand>


> <ChEMBL ID of Ligand>
CHEMBL3286824

> <DrugBank ID of Ligand>


> <IUPHAR_GRAC ID of Ligand>


> <KEGG ID of Ligand>


> <ZINC ID of Ligand>
ZINC36080054

> <Number of Protein Chains in Target (bigger than 1 implies a multichain complex)>
1

> <BindingDB Target Chain Sequence>
MGAIGLLWLLPLLLSTAAVGSGMGTGQRAGSPAAGPPLQPREPLSYSRLQRKSLAVDFVVPSLFRVYARDLLLPPSSSELKAGRPEARGSLALDCAPLLRLLGPAPGVSWTAGSPAPAEARTLSRVLKGGSVRKLRRAKQLVLELGEEAILEGCVGPPGEAAVGLLQFNLSELFSWWIRQGEGRLRIRLMPEKKASEVGREGRLSAAIRASQPRLLFQIFGTGHSSLESPTNMPSPSPDYFTWNLTWIMKDSFPFLSHRSRYGLECSFDFPCELEYSPPLHDLRNQSWSWRRIPSEEASQMDLLDGPGAERSKEMPRGSFLLLNTSADSKHTILSPWMRSSSEHCTLAVSVHRHLQPSGRYIAQLLPHNEAAREILLMPTPGKHGWTVLQGRIGRPDNPFRVALEYISSGNRSLSAVDFFALKNCSEGTSPGSKMALQSSFTCWNGTVLQLGQACDFHQDCAQGEDESQMCRKLPVGFYCNFEDGFCGWTQGTLSPHTPQWQVRTLKDARFQDHQDHALLLSTTDVPASESATVTSATFPAPIKSSPCELRMSWLIRGVLRGNVSLVLVENKTGKEQGRMVWHVAAYEGLSLWQWMVLPLLDVSDRFWLQMVAWWGQGSRAIVAFDNISISLDCYLTISGEDKILQNTAPKSRNLFERNPNKELKPGENSPRQTPIFDPTVHWLFTTCGASGPHGPTQAQCNNAYQNSNLSVEVGSEGPLKGIQIWKVPATDTYSISGYGAAGGKGGKNTMMRSHGVSVLGIFNLEKDDMLYILVGQQGEDACPSTNQLIQKVCIGENNVIEEEIRVNRSVHEWAGGGGGGGGATYVFKMKDGVPVPLIIAAGGGGRAYGAKTDTFHPERLENNSSVLGLNGNSGAAGGGGGWNDNTSLLWAGKSLQEGATGGHSCPQAMKKWGWETRGGFGGGGGGCSSGGGGGGYIGGNAASNNDPEMDGEDGVSFISPLGILYTPALKVMEGHGEVNIKHYLNCSHCEVDECHMDPESHKVICFCDHGTVLAEDGVSCIVSPTPEPHLPLSLILSVVTSALVAALVLAFSGIMIVYRRKHQELQAMQMELQSPEYKLSKLRTSTIMTDYNPNYCFAGKTSSISDLKEVPRKNITLIRGLGHGAFGEVYEGQVSGMPNDPSPLQVAVKTLPEVCSEQDELDFLMEALIISKFNHQNIVRCIGVSLQSLPRFILLELMAGGDLKSFLRETRPRPSQPSSLAMLDLLHVARDIACGCQYLEENHFIHRDIAARNCLLTCPGPGRVAKIGDFGMARDIYRASYYRKGGCAMLPVKWMPPEAFMEGIFTSKTDTWSFGVLLWEIFSLGYMPYPSKSNQEVLEFVTSGGRMDPPKNCPGPVYRIMTQCWQHQPEDRPNFAIILERIEYCTQDPDVINTALPIEYGPLVEEEEKVPVRPKDPEGVPPLLVSQQAKREEERSPAAPPPLPTTSSGKAAKKPTAAEISVRVPRGPAVEGGHVNMAFSQSNPPSELHKVHGSRNKPTSLWNPTYGSWFTEKPTKKNNPIAKKEPHDRGNLGLEGSCTVPPNVATGRLPGASLLLEPSSLTANMKEVPLFRLRHFPCGNVNYGYQQQGLPLEAATAPGAGHYEDTILKSKNSMNQPGP

> <PDB ID(s) of Target Chain>
2XB7,2XBA,3AOX,5FTO,5FTQ,6E0R,6EBW,6EDL,6MX8,7JY4,7JYR,7JYS,7JYT,7LS0,7MZW,7MZY,7N00,7NX3,7NX4,8ARJ

> <UniProt (SwissProt) Recommended Name of Target Chain>
ALK tyrosine kinase receptor

> <UniProt (SwissProt) Entry Name of Target Chain>
ALK_HUMAN

> <UniProt (SwissProt) Primary ID of Target Chain>
Q9UM73

> <UniProt (SwissProt) Secondary ID(s) of Target Chain>
A6P4T4 A6P4V4 Q4ZFX9 Q53QQ6 Q53RZ4 Q59FI3 Q9Y4K6

> <UniProt (SwissProt) Alternative ID(s) of Target Chain>


> <UniProt (TrEMBL) Submitted Name of Target Chain>


> <UniProt (TrEMBL) Entry Name of Target Chain>


> <UniProt (TrEMBL) Primary ID of Target Chain>


> <UniProt (TrEMBL) Secondary ID(s) of Target Chain>


> <UniProt (TrEMBL) Alternative ID(s) of Target Chain>


$$$$
 
  Mrv0541 11221423062D          

 30 33  0  0  0  0            999 V2000
   -0.9640    1.6774    0.0000 C   0  0  0  0  0  0  0  0  0  0  0  0
   -0.9653    0.8499    0.0000 C   0  0  0  0  0  0  0  0  0  0  0  0
   -0.2523    0.4370    0.0000 C   0  0  0  0  0  0  0  0  0  0  0  0
    0.4669    0.8504    0.0000 C   0  0  0  0  0  0  0  0  0  0  0  0
    0.4637    1.6815    0.0000 C   0  0  0  0  0  0  0  0  0  0  0  0
   -0.2543    2.0903    0.0000 N   0  0  0  0  0  0  0  0  0  0  0  0
   -1.6814    0.4425    0.0000 C   0  0  0  0  0  0  0  0  0  0  0  0
   -2.4724    0.6769    0.0000 C   0  0  0  0  0  0  0  0  0  0  0  0
   -2.9398   -0.0030    0.0000 N   0  0  0  0  0  0  0  0  0  0  0  0
   -2.4376   -0.6576    0.0000 N   0  0  0  0  0  0  0  0  0  0  0  0
   -1.6599   -0.3821    0.0000 C   0  0  0  0  0  0  0  0  0  0  0  0
   -3.7651   -0.0266    0.0000 C   0  0  0  0  0  0  0  0  0  0  0  0
   -4.1948    0.6787    0.0000 C   0  0  0  0  0  0  0  0  0  0  0  0
   -5.0160    0.6593    0.0000 C   0  0  0  0  0  0  0  0  0  0  0  0
   -5.4137   -0.0639    0.0000 N   0  0  0  0  0  0  0  0  0  0  0  0
   -4.9839   -0.7692    0.0000 C   0  0  0  0  0  0  0  0  0  0  0  0
   -4.1564   -0.7513    0.0000 C   0  0  0  0  0  0  0  0  0  0  0  0
    1.1762    2.0975    0.0000 N   0  0  0  0  0  0  0  0  0  0  0  0
    1.1818    0.4386    0.0000 O   0  0  0  0  0  0  0  0  0  0  0  0
    1.1825   -0.3864    0.0000 C   0  0  1  0  0  0  0  0  0  0  0  0
    1.8973   -0.7982    0.0000 C   0  0  0  0  0  0  0  0  0  0  0  0
    0.4685   -0.7996    0.0000 C   0  0  0  0  0  0  0  0  0  0  0  0
    1.8953   -1.6235    0.0000 C   0  0  0  0  0  0  0  0  0  0  0  0
    2.6093   -2.0354    0.0000 C   0  0  0  0  0  0  0  0  0  0  0  0
    3.3244   -1.6221    0.0000 C   0  0  0  0  0  0  0  0  0  0  0  0
    3.3210   -0.7930    0.0000 C   0  0  0  0  0  0  0  0  0  0  0  0
    2.6065   -0.3849    0.0000 C   0  0  0  0  0  0  0  0  0  0  0  0
    2.6028    0.4401    0.0000 Cl  0  0  0  0  0  0  0  0  0  0  0  0
    4.0337   -0.3773    0.0000 F   0  0  0  0  0  0  0  0  0  0  0  0
    1.1806   -2.0354    0.0000 Cl  0  0  0  0  0  0  0  0  0  0  0  0
 12 17  1  0  0  0  0
 13 14  1  0  0  0  0
 14 15  1  0  0  0  0
 15 16  1  0  0  0  0
 16 17  1  0  0  0  0
  9 12  1  0  0  0  0
  4  5  2  0  0  0  0
  5 18  1  0  0  0  0
  2  3  2  0  0  0  0
  4 19  1  0  0  0  0
  8  9  1  0  0  0  0
 20 19  1  0  0  0  0
  9 10  1  0  0  0  0
 20 21  1  0  0  0  0
 10 11  2  0  0  0  0
 20 22  1  1  0  0  0
 11  7  1  0  0  0  0
 21 23  2  0  0  0  0
  2  7  1  0  0  0  0
 23 24  1  0  0  0  0
 12 13  1  0  0  0  0
 24 25  2  0  0  0  0
  5  6  1  0  0  0  0
 25 26  1  0  0  0  0
  6  1  2  0  0  0  0
 26 27  2  0  0  0  0
 27 21  1  0  0  0  0
  7  8  2  0  0  0  0
 27 28  1  0  0  0  0
  1  2  1  0  0  0  0
 26 29  1  0  0  0  0
  3  4  1  0  0  0  0
 23 30  1  0  0  0  0
M  END
> <From>
www.bindingDB.org

> <BindingDB Reactant_set_id>
50103610

> <Ligand InChI>
InChI=1S/C21H22Cl2FN5O/c1-12(19-16(22)2-3-17(24)20(19)23)30-18-8-13(9-27-21(18)25)14-10-28-29(11-14)15-4-6-26-7-5-15/h2-3,8-12,15,26H,4-7H2,1H3,(H2,25,27)/t12-/m1/s1

> <Ligand InChI Key>
KTEIFNKAUNYNJU-GFCCVEGCSA-N

> <BindingDB MonomerID>
50306682

> <BindingDB Ligand Name>
(R)-3-(1-(2,6-dichloro-3-fluorophenyl)ethoxy)-5-(1-(piperidin-4-yl)-1H-pyrazol-4-yl)pyridin-2-amine::3-(2,6-dichloro-3-fluorobenzyloxy)-5-(1-(piperidin-4-yl)-1H-pyrazol-4-yl)pyridin-2-amine::3-[(1R)-1-(2,6-dichloro-3-fluorophenyl)ethoxy]-5-(1-piperidin-4-yl-1H-pyrazol-4-yl)pyridin-2-amine::CHEMBL601719::CRIZOTINIB::PF-2341066::US10370379, Crizotinib::US10543199, Compound Crizotinib::US10780082, Compound Crizotinib::US11059827, Compound Crizotinib::US11517561, Compound Crizotinib::US9126941, PF-2341066::US9199944, Crizotinib::US9226923, Crizotinib

> <Target Name>
ALK tyrosine kinase receptor

> <Target Source Organism According to Curator or DataSource>
Homo sapiens

> <Ki (nM)>


> <IC50 (nM)>
 165

> <Kd (nM)>


> <EC50 (nM)>


> <kon (M-1-s-1)>


> <koff (s-1)>


> <pH>


> <Temp C>


> <Curation/DataSource>
ChEMBL

> <Article DOI>
10.1021/jm500261q

> <BindingDB Entry DOI>
10.7270/Q2K35W68

> <PMID>
24819116

> <PubChem AID>


> <Patent Number>


> <Authors>
Johnson, TW; Richardson, PF; Bailey, S; Brooun, A; Burke, BJ; Collins, MR; Cui, JJ; Deal, JG; Deng, YL; Dinh, D; Engstrom, LD; He, M; Hoffman, J; Hoffman, RL; Huang, Q; Kania, RS; Kath, JC; Lam, H; Lam, JL; Le, PT; Lingardo, L; Liu, W; McTigue, M; Palmer, CL; Sach, NW; Smeal, T; Smith, GL; Stewart, AE; Timofeevski, S; Zhu, H; Zhu, J; Zou, HY; Edwards, MP

> <Date of publication>
6/12/2014

> <Date in BindingDB>
2/11/2015

> <Institution>
Pfizer Inc

> <Link to Ligand in BindingDB>
http://www.bindingdb.org/bind/chemsearch/marvin/MolStructure.jsp?monomerid=50306682

> <Link to Ligand-Target Pair in BindingDB>
http://www.bindingdb.org/jsp/dbsearch/PrimarySearch_ki.jsp?energyterm=kJ/mole&tag=pol&polymerid=5809&target=ALK+tyrosine+kinase+receptor&column=ki&startPg=0&Increment=50&submit=Search

> <Link to Ligand-Target Pair in BindingDB>
http://www.bindingdb.org/jsp/dbsearch/PrimarySearch_ki.jsp?energyterm=kJ/mole&tag=r21&monomerid=50306682&enzyme=ALK+tyrosine+kinase+receptor&column=ki&startPg=0&Increment=50&submit=Search

> <Ligand HET ID in PDB>
VGH

> <PDB ID(s) for Ligand-Target Complex>
2YFX,5AAA,5AAC,5AAB,4ANS,4ANQ,2XP2,2WGJ,3ZBF,4C9W,6IMZ

> <PubChem CID of Ligand>
11626560

> <PubChem SID of Ligand>
104161043

> <ChEBI ID of Ligand>
64310

> <ChEMBL ID of Ligand>
CHEMBL601719

> <DrugBank ID of Ligand>
DB08700

> <IUPHAR_GRAC ID of Ligand>
4903

> <KEGG ID of Ligand>


> <ZINC ID of Ligand>
ZINC35902489

> <Number of Protein Chains in Target (bigger than 1 implies a multichain complex)>
1

> <BindingDB Target Chain Sequence>
MGAIGLLWLLPLLLSTAAVGSGMGTGQRAGSPAAGPPLQPREPLSYSRLQRKSLAVDFVVPSLFRVYARDLLLPPSSSELKAGRPEARGSLALDCAPLLRLLGPAPGVSWTAGSPAPAEARTLSRVLKGGSVRKLRRAKQLVLELGEEAILEGCVGPPGEAAVGLLQFNLSELFSWWIRQGEGRLRIRLMPEKKASEVGREGRLSAAIRASQPRLLFQIFGTGHSSLESPTNMPSPSPDYFTWNLTWIMKDSFPFLSHRSRYGLECSFDFPCELEYSPPLHDLRNQSWSWRRIPSEEASQMDLLDGPGAERSKEMPRGSFLLLNTSADSKHTILSPWMRSSSEHCTLAVSVHRHLQPSGRYIAQLLPHNEAAREILLMPTPGKHGWTVLQGRIGRPDNPFRVALEYISSGNRSLSAVDFFALKNCSEGTSPGSKMALQSSFTCWNGTVLQLGQACDFHQDCAQGEDESQMCRKLPVGFYCNFEDGFCGWTQGTLSPHTPQWQVRTLKDARFQDHQDHALLLSTTDVPASESATVTSATFPAPIKSSPCELRMSWLIRGVLRGNVSLVLVENKTGKEQGRMVWHVAAYEGLSLWQWMVLPLLDVSDRFWLQMVAWWGQGSRAIVAFDNISISLDCYLTISGEDKILQNTAPKSRNLFERNPNKELKPGENSPRQTPIFDPTVHWLFTTCGASGPHGPTQAQCNNAYQNSNLSVEVGSEGPLKGIQIWKVPATDTYSISGYGAAGGKGGKNTMMRSHGVSVLGIFNLEKDDMLYILVGQQGEDACPSTNQLIQKVCIGENNVIEEEIRVNRSVHEWAGGGGGGGGATYVFKMKDGVPVPLIIAAGGGGRAYGAKTDTFHPERLENNSSVLGLNGNSGAAGGGGGWNDNTSLLWAGKSLQEGATGGHSCPQAMKKWGWETRGGFGGGGGGCSSGGGGGGYIGGNAASNNDPEMDGEDGVSFISPLGILYTPALKVMEGHGEVNIKHYLNCSHCEVDECHMDPESHKVICFCDHGTVLAEDGVSCIVSPTPEPHLPLSLILSVVTSALVAALVLAFSGIMIVYRRKHQELQAMQMELQSPEYKLSKLRTSTIMTDYNPNYCFAGKTSSISDLKEVPRKNITLIRGLGHGAFGEVYEGQVSGMPNDPSPLQVAVKTLPEVCSEQDELDFLMEALIISKFNHQNIVRCIGVSLQSLPRFILLELMAGGDLKSFLRETRPRPSQPSSLAMLDLLHVARDIACGCQYLEENHFIHRDIAARNCLLTCPGPGRVAKIGDFGMARDIYRASYYRKGGCAMLPVKWMPPEAFMEGIFTSKTDTWSFGVLLWEIFSLGYMPYPSKSNQEVLEFVTSGGRMDPPKNCPGPVYRIMTQCWQHQPEDRPNFAIILERIEYCTQDPDVINTALPIEYGPLVEEEEKVPVRPKDPEGVPPLLVSQQAKREEERSPAAPPPLPTTSSGKAAKKPTAAEISVRVPRGPAVEGGHVNMAFSQSNPPSELHKVHGSRNKPTSLWNPTYGSWFTEKPTKKNNPIAKKEPHDRGNLGLEGSCTVPPNVATGRLPGASLLLEPSSLTANMKEVPLFRLRHFPCGNVNYGYQQQGLPLEAATAPGAGHYEDTILKSKNSMNQPGP

> <PDB ID(s) of Target Chain>
2XB7,2XBA,3AOX,5FTO,5FTQ,6E0R,6EBW,6EDL,6MX8,7JY4,7JYR,7JYS,7JYT,7LS0,7MZW,7MZY,7N00,7NX3,7NX4,8ARJ

> <UniProt (SwissProt) Recommended Name of Target Chain>
ALK tyrosine kinase receptor

> <UniProt (SwissProt) Entry Name of Target Chain>
ALK_HUMAN

> <UniProt (SwissProt) Primary ID of Target Chain>
Q9UM73

> <UniProt (SwissProt) Secondary ID(s) of Target Chain>
A6P4T4 A6P4V4 Q4ZFX9 Q53QQ6 Q53RZ4 Q59FI3 Q9Y4K6

> <UniProt (SwissProt) Alternative ID(s) of Target Chain>


> <UniProt (TrEMBL) Submitted Name of Target Chain>


> <UniProt (TrEMBL) Entry Name of Target Chain>


> <UniProt (TrEMBL) Primary ID of Target Chain>


> <UniProt (TrEMBL) Secondary ID(s) of Target Chain>


> <UniProt (TrEMBL) Alternative ID(s) of Target Chain>


$$$$

  SciTegic05061409512D

 29 32  0  0  0  0            999 V2000
    8.5664  -15.1907    0.0000 C   0  0
    8.5664  -14.3657    0.0000 C   0  0
    9.2808  -13.9532    0.0000 C   0  0
    9.9953  -14.3657    0.0000 C   0  0
    9.9953  -15.1907    0.0000 C   0  0
    9.2808  -15.6032    0.0000 N   0  0
    7.8519  -15.6032    0.0000 N   0  0
    7.8519  -13.9532    0.0000 O   0  0
    7.1374  -14.3657    0.0000 C   0  0  2  0  0  0
    7.1374  -15.1907    0.0000 C   0  0
    6.4230  -13.9532    0.0000 C   0  0
    5.7085  -14.3657    0.0000 C   0  0
    4.9940  -13.9532    0.0000 C   0  0
    4.9940  -13.1282    0.0000 C   0  0
    5.7085  -12.7157    0.0000 C   0  0
    6.4230  -13.1282    0.0000 C   0  0
    5.0410  -15.6756    0.0000 N   0  0
    5.7085  -15.1907    0.0000 N   0  0
    6.3759  -15.6756    0.0000 N   0  0
    6.1210  -16.4602    0.0000 C   0  0
    5.2960  -16.4602    0.0000 C   0  0
    5.7085  -11.8907    0.0000 F   0  0
   11.6030  -12.9612    0.0000 N   0  0
   12.0155  -13.6756    0.0000 N   0  0
   11.4635  -14.2887    0.0000 C   0  0
   10.7098  -13.9532    0.0000 C   0  0
   10.7960  -13.1327    0.0000 C   0  0
   11.6350  -15.0957    0.0000 C   0  0
   11.9385  -12.2075    0.0000 C   0  0
  1  2  1  0
  2  3  2  0
  3  4  1  0
  4  5  2  0
  5  6  1  0
  1  6  2  0
  1  7  1  0
  9 10  1  6
  8  9  1  0
 11 12  1  0
 12 13  2  0
 13 14  1  0
 14 15  2  0
 15 16  1  0
 11 16  2  0
 17 18  1  0
 18 19  1  0
 19 20  2  0
 20 21  1  0
 17 21  2  0
 12 18  1  0
 15 22  1  0
  9 11  1  0
  2  8  1  0
 23 24  1  0
 24 25  2  0
 25 26  1  0
 26 27  2  0
 23 27  1  0
 25 28  1  0
 23 29  1  0
  4 26  1  0
M  END
> <From>
www.bindingDB.org

> <BindingDB Reactant_set_id>
50103705

> <Ligand InChI>
InChI=1S/C20H20FN7O/c1-12-17(11-27(3)26-12)14-8-19(20(22)23-10-14)29-13(2)16-9-15(21)4-5-18(16)28-24-6-7-25-28/h4-11,13H,1-3H3,(H2,22,23)/t13-/m1/s1

> <Ligand InChI Key>
RZEJOJRZSRSZQC-CYBMUJFWSA-N

> <BindingDB MonomerID>
50018818

> <BindingDB Ligand Name>
CHEMBL3128075

> <Target Name>
ALK tyrosine kinase receptor

> <Target Source Organism According to Curator or DataSource>
Homo sapiens

> <Ki (nM)>


> <IC50 (nM)>
 176

> <Kd (nM)>


> <EC50 (nM)>


> <kon (M-1-s-1)>


> <koff (s-1)>


> <pH>


> <Temp C>


> <Curation/DataSource>
ChEMBL

> <Article DOI>
10.1021/jm500261q

> <BindingDB Entry DOI>
10.7270/Q2K35W68

> <PMID>
24819116

> <PubChem AID>


> <Patent Number>


> <Authors>
Johnson, TW; Richardson, PF; Bailey, S; Brooun, A; Burke, BJ; Collins, MR; Cui, JJ; Deal, JG; Deng, YL; Dinh, D; Engstrom, LD; He, M; Hoffman, J; Hoffman, RL; Huang, Q; Kania, RS; Kath, JC; Lam, H; Lam, JL; Le, PT; Lingardo, L; Liu, W; McTigue, M; Palmer, CL; Sach, NW; Smeal, T; Smith, GL; Stewart, AE; Timofeevski, S; Zhu, H; Zhu, J; Zou, HY; Edwards, MP

> <Date of publication>
6/12/2014

> <Date in BindingDB>
2/11/2015

> <Institution>
Pfizer Inc

> <Link to Ligand in BindingDB>
http://www.bindingdb.org/bind/chemsearch/marvin/MolStructure.jsp?monomerid=50018818

> <Link to Ligand-Target Pair in BindingDB>
http://www.bindingdb.org/jsp/dbsearch/PrimarySearch_ki.jsp?energyterm=kJ/mole&tag=pol&polymerid=5809&target=ALK+tyrosine+kinase+receptor&column=ki&startPg=0&Increment=50&submit=Search

> <Link to Ligand-Target Pair in BindingDB>
http://www.bindingdb.org/jsp/dbsearch/PrimarySearch_ki.jsp?energyterm=kJ/mole&tag=r21&monomerid=50018818&enzyme=ALK+tyrosine+kinase+receptor&column=ki&startPg=0&Increment=50&submit=Search

> <Ligand HET ID in PDB>


> <PDB ID(s) for Ligand-Target Complex>


> <PubChem CID of Ligand>
76311144

> <PubChem SID of Ligand>
103929871

> <ChEBI ID of Ligand>


> <ChEMBL ID of Ligand>
CHEMBL3128075

> <DrugBank ID of Ligand>


> <IUPHAR_GRAC ID of Ligand>


> <KEGG ID of Ligand>


> <ZINC ID of Ligand>
ZINC33891495

> <Number of Protein Chains in Target (bigger than 1 implies a multichain complex)>
1

> <BindingDB Target Chain Sequence>
MGAIGLLWLLPLLLSTAAVGSGMGTGQRAGSPAAGPPLQPREPLSYSRLQRKSLAVDFVVPSLFRVYARDLLLPPSSSELKAGRPEARGSLALDCAPLLRLLGPAPGVSWTAGSPAPAEARTLSRVLKGGSVRKLRRAKQLVLELGEEAILEGCVGPPGEAAVGLLQFNLSELFSWWIRQGEGRLRIRLMPEKKASEVGREGRLSAAIRASQPRLLFQIFGTGHSSLESPTNMPSPSPDYFTWNLTWIMKDSFPFLSHRSRYGLECSFDFPCELEYSPPLHDLRNQSWSWRRIPSEEASQMDLLDGPGAERSKEMPRGSFLLLNTSADSKHTILSPWMRSSSEHCTLAVSVHRHLQPSGRYIAQLLPHNEAAREILLMPTPGKHGWTVLQGRIGRPDNPFRVALEYISSGNRSLSAVDFFALKNCSEGTSPGSKMALQSSFTCWNGTVLQLGQACDFHQDCAQGEDESQMCRKLPVGFYCNFEDGFCGWTQGTLSPHTPQWQVRTLKDARFQDHQDHALLLSTTDVPASESATVTSATFPAPIKSSPCELRMSWLIRGVLRGNVSLVLVENKTGKEQGRMVWHVAAYEGLSLWQWMVLPLLDVSDRFWLQMVAWWGQGSRAIVAFDNISISLDCYLTISGEDKILQNTAPKSRNLFERNPNKELKPGENSPRQTPIFDPTVHWLFTTCGASGPHGPTQAQCNNAYQNSNLSVEVGSEGPLKGIQIWKVPATDTYSISGYGAAGGKGGKNTMMRSHGVSVLGIFNLEKDDMLYILVGQQGEDACPSTNQLIQKVCIGENNVIEEEIRVNRSVHEWAGGGGGGGGATYVFKMKDGVPVPLIIAAGGGGRAYGAKTDTFHPERLENNSSVLGLNGNSGAAGGGGGWNDNTSLLWAGKSLQEGATGGHSCPQAMKKWGWETRGGFGGGGGGCSSGGGGGGYIGGNAASNNDPEMDGEDGVSFISPLGILYTPALKVMEGHGEVNIKHYLNCSHCEVDECHMDPESHKVICFCDHGTVLAEDGVSCIVSPTPEPHLPLSLILSVVTSALVAALVLAFSGIMIVYRRKHQELQAMQMELQSPEYKLSKLRTSTIMTDYNPNYCFAGKTSSISDLKEVPRKNITLIRGLGHGAFGEVYEGQVSGMPNDPSPLQVAVKTLPEVCSEQDELDFLMEALIISKFNHQNIVRCIGVSLQSLPRFILLELMAGGDLKSFLRETRPRPSQPSSLAMLDLLHVARDIACGCQYLEENHFIHRDIAARNCLLTCPGPGRVAKIGDFGMARDIYRASYYRKGGCAMLPVKWMPPEAFMEGIFTSKTDTWSFGVLLWEIFSLGYMPYPSKSNQEVLEFVTSGGRMDPPKNCPGPVYRIMTQCWQHQPEDRPNFAIILERIEYCTQDPDVINTALPIEYGPLVEEEEKVPVRPKDPEGVPPLLVSQQAKREEERSPAAPPPLPTTSSGKAAKKPTAAEISVRVPRGPAVEGGHVNMAFSQSNPPSELHKVHGSRNKPTSLWNPTYGSWFTEKPTKKNNPIAKKEPHDRGNLGLEGSCTVPPNVATGRLPGASLLLEPSSLTANMKEVPLFRLRHFPCGNVNYGYQQQGLPLEAATAPGAGHYEDTILKSKNSMNQPGP

> <PDB ID(s) of Target Chain>
2XB7,2XBA,3AOX,5FTO,5FTQ,6E0R,6EBW,6EDL,6MX8,7JY4,7JYR,7JYS,7JYT,7LS0,7MZW,7MZY,7N00,7NX3,7NX4,8ARJ

> <UniProt (SwissProt) Recommended Name of Target Chain>
ALK tyrosine kinase receptor

> <UniProt (SwissProt) Entry Name of Target Chain>
ALK_HUMAN

> <UniProt (SwissProt) Primary ID of Target Chain>
Q9UM73

> <UniProt (SwissProt) Secondary ID(s) of Target Chain>
A6P4T4 A6P4V4 Q4ZFX9 Q53QQ6 Q53RZ4 Q59FI3 Q9Y4K6

> <UniProt (SwissProt) Alternative ID(s) of Target Chain>


> <UniProt (TrEMBL) Submitted Name of Target Chain>


> <UniProt (TrEMBL) Entry Name of Target Chain>


> <UniProt (TrEMBL) Primary ID of Target Chain>


> <UniProt (TrEMBL) Secondary ID(s) of Target Chain>


> <UniProt (TrEMBL) Alternative ID(s) of Target Chain>


$$$$

  SciTegic05061409512D

 28 31  0  0  0  0            999 V2000
   10.1132  -15.5826    0.0000 C   0  0
   10.1132  -14.7576    0.0000 C   0  0
   10.8277  -14.3451    0.0000 C   0  0
   11.5422  -14.7576    0.0000 C   0  0
   11.5422  -15.5826    0.0000 C   0  0
   10.8277  -15.9951    0.0000 N   0  0
    9.3988  -15.9951    0.0000 N   0  0
   12.3429  -13.5246    0.0000 N   0  0
   13.1499  -13.3530    0.0000 N   0  0
   13.5624  -14.0675    0.0000 N   0  0
   13.0103  -14.6806    0.0000 C   0  0
   12.2567  -14.3451    0.0000 C   0  0
   11.7298  -12.9725    0.0000 C   0  0
    9.3988  -14.3451    0.0000 O   0  0
    8.6843  -14.7576    0.0000 C   0  0  2  0  0  0
    8.6843  -15.5826    0.0000 C   0  0
    7.9698  -14.3451    0.0000 C   0  0
    7.2554  -14.7576    0.0000 C   0  0
    6.5409  -14.3451    0.0000 C   0  0
    6.5409  -13.5201    0.0000 C   0  0
    7.2554  -13.1076    0.0000 C   0  0
    7.9698  -13.5201    0.0000 C   0  0
    6.5879  -16.0675    0.0000 N   0  0
    7.2554  -15.5826    0.0000 N   0  0
    7.9228  -16.0675    0.0000 N   0  0
    7.6679  -16.8521    0.0000 C   0  0
    6.8429  -16.8521    0.0000 C   0  0
    7.2554  -12.2826    0.0000 F   0  0
  1  2  1  0
  2  3  2  0
  3  4  1  0
  4  5  2  0
  5  6  1  0
  1  6  2  0
  1  7  1  0
  8  9  1  0
  9 10  2  0
 10 11  1  0
 11 12  2  0
  8 12  1  0
  8 13  1  0
  4 12  1  0
 15 16  1  6
 14 15  1  0
 17 18  1  0
 18 19  2  0
 19 20  1  0
 20 21  2  0
 21 22  1  0
 17 22  2  0
 23 24  1  0
 24 25  1  0
 25 26  2  0
 26 27  1  0
 23 27  2  0
 18 24  1  0
 21 28  1  0
 15 17  1  0
  2 14  1  0
M  END
> <From>
www.bindingDB.org

> <BindingDB Reactant_set_id>
50103681

> <Ligand InChI>
InChI=1S/C18H17FN8O/c1-11(14-8-13(19)3-4-15(14)27-23-5-6-24-27)28-17-7-12(9-21-18(17)20)16-10-22-25-26(16)2/h3-11H,1-2H3,(H2,20,21)/t11-/m1/s1

> <Ligand InChI Key>
OEAYZBGGCSQPKK-LLVKDONJSA-N

> <BindingDB MonomerID>
50018817

> <BindingDB Ligand Name>
CHEMBL3128060

> <Target Name>
ALK tyrosine kinase receptor

> <Target Source Organism According to Curator or DataSource>
Homo sapiens

> <Ki (nM)>


> <IC50 (nM)>
 249

> <Kd (nM)>


> <EC50 (nM)>


> <kon (M-1-s-1)>


> <koff (s-1)>


> <pH>


> <Temp C>


> <Curation/DataSource>
ChEMBL

> <Article DOI>
10.1021/jm500261q

> <BindingDB Entry DOI>
10.7270/Q2K35W68

> <PMID>
24819116

> <PubChem AID>


> <Patent Number>


> <Authors>
Johnson, TW; Richardson, PF; Bailey, S; Brooun, A; Burke, BJ; Collins, MR; Cui, JJ; Deal, JG; Deng, YL; Dinh, D; Engstrom, LD; He, M; Hoffman, J; Hoffman, RL; Huang, Q; Kania, RS; Kath, JC; Lam, H; Lam, JL; Le, PT; Lingardo, L; Liu, W; McTigue, M; Palmer, CL; Sach, NW; Smeal, T; Smith, GL; Stewart, AE; Timofeevski, S; Zhu, H; Zhu, J; Zou, HY; Edwards, MP

> <Date of publication>
6/12/2014

> <Date in BindingDB>
2/11/2015

> <Institution>
Pfizer Inc

> <Link to Ligand in BindingDB>
http://www.bindingdb.org/bind/chemsearch/marvin/MolStructure.jsp?monomerid=50018817

> <Link to Ligand-Target Pair in BindingDB>
http://www.bindingdb.org/jsp/dbsearch/PrimarySearch_ki.jsp?energyterm=kJ/mole&tag=pol&polymerid=5809&target=ALK+tyrosine+kinase+receptor&column=ki&startPg=0&Increment=50&submit=Search

> <Link to Ligand-Target Pair in BindingDB>
http://www.bindingdb.org/jsp/dbsearch/PrimarySearch_ki.jsp?energyterm=kJ/mole&tag=r21&monomerid=50018817&enzyme=ALK+tyrosine+kinase+receptor&column=ki&startPg=0&Increment=50&submit=Search

> <Ligand HET ID in PDB>


> <PDB ID(s) for Ligand-Target Complex>


> <PubChem CID of Ligand>
76318349

> <PubChem SID of Ligand>
103929870

> <ChEBI ID of Ligand>


> <ChEMBL ID of Ligand>
CHEMBL3128060

> <DrugBank ID of Ligand>


> <IUPHAR_GRAC ID of Ligand>


> <KEGG ID of Ligand>


> <ZINC ID of Ligand>
ZINC33891498

> <Number of Protein Chains in Target (bigger than 1 implies a multichain complex)>
1

> <BindingDB Target Chain Sequence>
MGAIGLLWLLPLLLSTAAVGSGMGTGQRAGSPAAGPPLQPREPLSYSRLQRKSLAVDFVVPSLFRVYARDLLLPPSSSELKAGRPEARGSLALDCAPLLRLLGPAPGVSWTAGSPAPAEARTLSRVLKGGSVRKLRRAKQLVLELGEEAILEGCVGPPGEAAVGLLQFNLSELFSWWIRQGEGRLRIRLMPEKKASEVGREGRLSAAIRASQPRLLFQIFGTGHSSLESPTNMPSPSPDYFTWNLTWIMKDSFPFLSHRSRYGLECSFDFPCELEYSPPLHDLRNQSWSWRRIPSEEASQMDLLDGPGAERSKEMPRGSFLLLNTSADSKHTILSPWMRSSSEHCTLAVSVHRHLQPSGRYIAQLLPHNEAAREILLMPTPGKHGWTVLQGRIGRPDNPFRVALEYISSGNRSLSAVDFFALKNCSEGTSPGSKMALQSSFTCWNGTVLQLGQACDFHQDCAQGEDESQMCRKLPVGFYCNFEDGFCGWTQGTLSPHTPQWQVRTLKDARFQDHQDHALLLSTTDVPASESATVTSATFPAPIKSSPCELRMSWLIRGVLRGNVSLVLVENKTGKEQGRMVWHVAAYEGLSLWQWMVLPLLDVSDRFWLQMVAWWGQGSRAIVAFDNISISLDCYLTISGEDKILQNTAPKSRNLFERNPNKELKPGENSPRQTPIFDPTVHWLFTTCGASGPHGPTQAQCNNAYQNSNLSVEVGSEGPLKGIQIWKVPATDTYSISGYGAAGGKGGKNTMMRSHGVSVLGIFNLEKDDMLYILVGQQGEDACPSTNQLIQKVCIGENNVIEEEIRVNRSVHEWAGGGGGGGGATYVFKMKDGVPVPLIIAAGGGGRAYGAKTDTFHPERLENNSSVLGLNGNSGAAGGGGGWNDNTSLLWAGKSLQEGATGGHSCPQAMKKWGWETRGGFGGGGGGCSSGGGGGGYIGGNAASNNDPEMDGEDGVSFISPLGILYTPALKVMEGHGEVNIKHYLNCSHCEVDECHMDPESHKVICFCDHGTVLAEDGVSCIVSPTPEPHLPLSLILSVVTSALVAALVLAFSGIMIVYRRKHQELQAMQMELQSPEYKLSKLRTSTIMTDYNPNYCFAGKTSSISDLKEVPRKNITLIRGLGHGAFGEVYEGQVSGMPNDPSPLQVAVKTLPEVCSEQDELDFLMEALIISKFNHQNIVRCIGVSLQSLPRFILLELMAGGDLKSFLRETRPRPSQPSSLAMLDLLHVARDIACGCQYLEENHFIHRDIAARNCLLTCPGPGRVAKIGDFGMARDIYRASYYRKGGCAMLPVKWMPPEAFMEGIFTSKTDTWSFGVLLWEIFSLGYMPYPSKSNQEVLEFVTSGGRMDPPKNCPGPVYRIMTQCWQHQPEDRPNFAIILERIEYCTQDPDVINTALPIEYGPLVEEEEKVPVRPKDPEGVPPLLVSQQAKREEERSPAAPPPLPTTSSGKAAKKPTAAEISVRVPRGPAVEGGHVNMAFSQSNPPSELHKVHGSRNKPTSLWNPTYGSWFTEKPTKKNNPIAKKEPHDRGNLGLEGSCTVPPNVATGRLPGASLLLEPSSLTANMKEVPLFRLRHFPCGNVNYGYQQQGLPLEAATAPGAGHYEDTILKSKNSMNQPGP

> <PDB ID(s) of Target Chain>
2XB7,2XBA,3AOX,5FTO,5FTQ,6E0R,6EBW,6EDL,6MX8,7JY4,7JYR,7JYS,7JYT,7LS0,7MZW,7MZY,7N00,7NX3,7NX4,8ARJ

> <UniProt (SwissProt) Recommended Name of Target Chain>
ALK tyrosine kinase receptor

> <UniProt (SwissProt) Entry Name of Target Chain>
ALK_HUMAN

> <UniProt (SwissProt) Primary ID of Target Chain>
Q9UM73

> <UniProt (SwissProt) Secondary ID(s) of Target Chain>
A6P4T4 A6P4V4 Q4ZFX9 Q53QQ6 Q53RZ4 Q59FI3 Q9Y4K6

> <UniProt (SwissProt) Alternative ID(s) of Target Chain>


> <UniProt (TrEMBL) Submitted Name of Target Chain>


> <UniProt (TrEMBL) Entry Name of Target Chain>


> <UniProt (TrEMBL) Primary ID of Target Chain>


> <UniProt (TrEMBL) Secondary ID(s) of Target Chain>


> <UniProt (TrEMBL) Alternative ID(s) of Target Chain>


$$$$

  SciTegic09261414532D

 29 31  0  0  0  0            999 V2000
   29.5631  -11.0840    0.0000 C   0  0
   28.8410  -11.4751    0.0000 C   0  0
   27.4049  -12.2600    0.0000 C   0  0
   27.4241  -11.4420    0.0000 C   0  0
   28.1421  -11.0495    0.0000 N   0  0
   28.8219  -12.2932    0.0000 C   0  0
   28.1039  -12.6856    0.0000 N   0  0
   26.6869  -12.6525    0.0000 N   0  0
   26.7252  -11.0164    0.0000 O   0  0
   26.7445  -10.1981    0.0000 C   0  0  2  0  0  0
   27.4819   -9.8439    0.0000 C   0  0
   26.0418   -9.7788    0.0000 C   0  0
   25.3273  -10.1777    0.0000 C   0  0
   24.6246   -9.7584    0.0000 C   0  0
   24.6364   -8.9402    0.0000 C   0  0
   25.3508   -8.5413    0.0000 C   0  0
   26.0535   -8.9606    0.0000 C   0  0
   23.9101  -10.1573    0.0000 F   0  0
   30.2604  -11.5153    0.0000 C   0  0
   30.9820  -11.1249    0.0000 N   0  0
   31.0048  -10.3031    0.0000 C   0  0
   30.3001   -9.8733    0.0000 C   0  0
   29.5813  -10.2662    0.0000 C   0  0
   30.2367  -12.3321    0.0000 O   0  0
   29.5175  -12.7200    0.0000 C   0  0
   26.7670   -8.5622    0.0000 C   0  0
   27.4688   -8.9809    0.0000 O   0  0
   26.7788   -7.7451    0.0000 N   0  0
   27.4923   -7.3467    0.0000 C   0  0
  2  1  1  0
  3  4  1  0
  4  5  2  0
  5  2  1  0
  2  6  2  0
  6  7  1  0
  3  7  2  0
  3  8  1  0
 10 11  1  1
  9 10  1  0
 12 13  1  0
 13 14  2  0
 14 15  1  0
 15 16  2  0
 16 17  1  0
 12 17  2  0
 14 18  1  0
 10 12  1  0
  4  9  1  0
  1 19  2  0
 19 20  1  0
 20 21  2  0
 21 22  1  0
 22 23  2  0
 23  1  1  0
 19 24  1  0
 24 25  1  0
 17 26  1  0
 26 27  2  0
 26 28  1  0
 28 29  1  0
M  END
> <From>
www.bindingDB.org

> <BindingDB Reactant_set_id>
50103708

> <Ligand InChI>
InChI=1S/C20H20FN5O3/c1-11(15-9-12(21)6-7-13(15)18(27)23-2)29-20-17(22)25-10-16(26-20)14-5-4-8-24-19(14)28-3/h4-11H,1-3H3,(H2,22,25)(H,23,27)/t11-/m1/s1

> <Ligand InChI Key>
AMLQLZSHSQNJKQ-LLVKDONJSA-N

> <BindingDB MonomerID>
50018822

> <BindingDB Ligand Name>
CHEMBL3286812

> <Target Name>
ALK tyrosine kinase receptor

> <Target Source Organism According to Curator or DataSource>
Homo sapiens

> <Ki (nM)>


> <IC50 (nM)>
 312

> <Kd (nM)>


> <EC50 (nM)>


> <kon (M-1-s-1)>


> <koff (s-1)>


> <pH>


> <Temp C>


> <Curation/DataSource>
ChEMBL

> <Article DOI>
10.1021/jm500261q

> <BindingDB Entry DOI>
10.7270/Q2K35W68

> <PMID>
24819116

> <PubChem AID>


> <Patent Number>


> <Authors>
Johnson, TW; Richardson, PF; Bailey, S; Brooun, A; Burke, BJ; Collins, MR; Cui, JJ; Deal, JG; Deng, YL; Dinh, D; Engstrom, LD; He, M; Hoffman, J; Hoffman, RL; Huang, Q; Kania, RS; Kath, JC; Lam, H; Lam, JL; Le, PT; Lingardo, L; Liu, W; McTigue, M; Palmer, CL; Sach, NW; Smeal, T; Smith, GL; Stewart, AE; Timofeevski, S; Zhu, H; Zhu, J; Zou, HY; Edwards, MP

> <Date of publication>
6/12/2014

> <Date in BindingDB>
2/11/2015

> <Institution>
Pfizer Inc

> <Link to Ligand in BindingDB>
http://www.bindingdb.org/bind/chemsearch/marvin/MolStructure.jsp?monomerid=50018822

> <Link to Ligand-Target Pair in BindingDB>
http://www.bindingdb.org/jsp/dbsearch/PrimarySearch_ki.jsp?energyterm=kJ/mole&tag=pol&polymerid=5809&target=ALK+tyrosine+kinase+receptor&column=ki&startPg=0&Increment=50&submit=Search

> <Link to Ligand-Target Pair in BindingDB>
http://www.bindingdb.org/jsp/dbsearch/PrimarySearch_ki.jsp?energyterm=kJ/mole&tag=r21&monomerid=50018822&enzyme=ALK+tyrosine+kinase+receptor&column=ki&startPg=0&Increment=50&submit=Search

> <Ligand HET ID in PDB>
YPW

> <PDB ID(s) for Ligand-Target Complex>
4CMO

> <PubChem CID of Ligand>
73819542

> <PubChem SID of Ligand>
103929875

> <ChEBI ID of Ligand>


> <ChEMBL ID of Ligand>
CHEMBL3286812

> <DrugBank ID of Ligand>


> <IUPHAR_GRAC ID of Ligand>


> <KEGG ID of Ligand>


> <ZINC ID of Ligand>
ZINC33891515

> <Number of Protein Chains in Target (bigger than 1 implies a multichain complex)>
1

> <BindingDB Target Chain Sequence>
MGAIGLLWLLPLLLSTAAVGSGMGTGQRAGSPAAGPPLQPREPLSYSRLQRKSLAVDFVVPSLFRVYARDLLLPPSSSELKAGRPEARGSLALDCAPLLRLLGPAPGVSWTAGSPAPAEARTLSRVLKGGSVRKLRRAKQLVLELGEEAILEGCVGPPGEAAVGLLQFNLSELFSWWIRQGEGRLRIRLMPEKKASEVGREGRLSAAIRASQPRLLFQIFGTGHSSLESPTNMPSPSPDYFTWNLTWIMKDSFPFLSHRSRYGLECSFDFPCELEYSPPLHDLRNQSWSWRRIPSEEASQMDLLDGPGAERSKEMPRGSFLLLNTSADSKHTILSPWMRSSSEHCTLAVSVHRHLQPSGRYIAQLLPHNEAAREILLMPTPGKHGWTVLQGRIGRPDNPFRVALEYISSGNRSLSAVDFFALKNCSEGTSPGSKMALQSSFTCWNGTVLQLGQACDFHQDCAQGEDESQMCRKLPVGFYCNFEDGFCGWTQGTLSPHTPQWQVRTLKDARFQDHQDHALLLSTTDVPASESATVTSATFPAPIKSSPCELRMSWLIRGVLRGNVSLVLVENKTGKEQGRMVWHVAAYEGLSLWQWMVLPLLDVSDRFWLQMVAWWGQGSRAIVAFDNISISLDCYLTISGEDKILQNTAPKSRNLFERNPNKELKPGENSPRQTPIFDPTVHWLFTTCGASGPHGPTQAQCNNAYQNSNLSVEVGSEGPLKGIQIWKVPATDTYSISGYGAAGGKGGKNTMMRSHGVSVLGIFNLEKDDMLYILVGQQGEDACPSTNQLIQKVCIGENNVIEEEIRVNRSVHEWAGGGGGGGGATYVFKMKDGVPVPLIIAAGGGGRAYGAKTDTFHPERLENNSSVLGLNGNSGAAGGGGGWNDNTSLLWAGKSLQEGATGGHSCPQAMKKWGWETRGGFGGGGGGCSSGGGGGGYIGGNAASNNDPEMDGEDGVSFISPLGILYTPALKVMEGHGEVNIKHYLNCSHCEVDECHMDPESHKVICFCDHGTVLAEDGVSCIVSPTPEPHLPLSLILSVVTSALVAALVLAFSGIMIVYRRKHQELQAMQMELQSPEYKLSKLRTSTIMTDYNPNYCFAGKTSSISDLKEVPRKNITLIRGLGHGAFGEVYEGQVSGMPNDPSPLQVAVKTLPEVCSEQDELDFLMEALIISKFNHQNIVRCIGVSLQSLPRFILLELMAGGDLKSFLRETRPRPSQPSSLAMLDLLHVARDIACGCQYLEENHFIHRDIAARNCLLTCPGPGRVAKIGDFGMARDIYRASYYRKGGCAMLPVKWMPPEAFMEGIFTSKTDTWSFGVLLWEIFSLGYMPYPSKSNQEVLEFVTSGGRMDPPKNCPGPVYRIMTQCWQHQPEDRPNFAIILERIEYCTQDPDVINTALPIEYGPLVEEEEKVPVRPKDPEGVPPLLVSQQAKREEERSPAAPPPLPTTSSGKAAKKPTAAEISVRVPRGPAVEGGHVNMAFSQSNPPSELHKVHGSRNKPTSLWNPTYGSWFTEKPTKKNNPIAKKEPHDRGNLGLEGSCTVPPNVATGRLPGASLLLEPSSLTANMKEVPLFRLRHFPCGNVNYGYQQQGLPLEAATAPGAGHYEDTILKSKNSMNQPGP

> <PDB ID(s) of Target Chain>
2XB7,2XBA,3AOX,5FTO,5FTQ,6E0R,6EBW,6EDL,6MX8,7JY4,7JYR,7JYS,7JYT,7LS0,7MZW,7MZY,7N00,7NX3,7NX4,8ARJ

> <UniProt (SwissProt) Recommended Name of Target Chain>
ALK tyrosine kinase receptor

> <UniProt (SwissProt) Entry Name of Target Chain>
ALK_HUMAN

> <UniProt (SwissProt) Primary ID of Target Chain>
Q9UM73

> <UniProt (SwissProt) Secondary ID(s) of Target Chain>
A6P4T4 A6P4V4 Q4ZFX9 Q53QQ6 Q53RZ4 Q59FI3 Q9Y4K6

> <UniProt (SwissProt) Alternative ID(s) of Target Chain>


> <UniProt (TrEMBL) Submitted Name of Target Chain>


> <UniProt (TrEMBL) Entry Name of Target Chain>


> <UniProt (TrEMBL) Primary ID of Target Chain>


> <UniProt (TrEMBL) Secondary ID(s) of Target Chain>


> <UniProt (TrEMBL) Alternative ID(s) of Target Chain>


$$$$

  SciTegic09261414532D

 32 36  0  0  0  0            999 V2000
   15.3310   -4.6775    0.0000 O   0  0
   14.6101   -5.0724    0.0000 C   0  0  1  0  0  0
   13.9045   -4.6434    0.0000 C   0  0
   13.9290   -3.8195    0.0000 C   0  0
   13.2242   -3.3906    0.0000 C   0  0
   12.5023   -3.7855    0.0000 C   0  0
   12.4852   -4.6138    0.0000 C   0  0
   13.1906   -5.0388    0.0000 C   0  0
   14.6555   -3.4268    0.0000 C   0  0
   11.7614   -5.0112    0.0000 F   0  0
   18.2053   -3.9163    0.0000 C   0  0
   16.0178   -5.1056    0.0000 C   0  0
   17.4661   -5.1410    0.0000 C   0  0
   16.0179   -5.9319    0.0000 C   0  0
   16.7638   -4.7115    0.0000 C   0  0
   17.4465   -5.9660    0.0000 C   0  0
   16.7245   -6.3614    0.0000 N   0  0
   15.2917   -6.3273    0.0000 N   0  0
   18.1899   -4.7456    0.0000 C   0  0
   18.9966   -3.6844    0.0000 N   0  0
   14.1913   -5.7853    0.0000 C   0  0
   15.3717   -3.8676    0.0000 O   0  0
   14.6792   -2.5861    0.0000 N   0  0
   15.4190   -2.1863    0.0000 C   0  0
   13.9628   -2.1453    0.0000 C   0  0
   19.4671   -4.3583    0.0000 C   0  0
   18.9663   -5.0093    0.0000 N   0  0
   19.2798   -5.7663    0.0000 C   0  0
   20.0938   -5.8737    0.0000 C   0  0
   20.5934   -5.2178    0.0000 C   0  0
   20.2771   -4.4633    0.0000 N   0  0
   20.4170   -6.6501    0.0000 C   0  0
 12  1  1  0
  1  2  1  0
  2  3  1  0
  3  4  2  0
  4  5  1  0
  5  6  2  0
  6  7  1  0
  7  8  2  0
  8  3  1  0
  4  9  1  0
  7 10  1  0
 14 12  1  0
 12 15  2  0
 15 13  1  0
 13 16  2  0
 16 17  1  0
 14 17  2  0
 14 18  1  0
 13 19  1  0
 11 19  2  0
 19 27  1  0
 26 20  2  0
 20 11  1  0
  2 21  1  6
  9 22  2  0
  9 23  1  0
 23 24  1  0
 23 25  1  0
 24 11  1  0
 26 27  1  0
 27 28  1  0
 28 29  2  0
 29 30  1  0
 30 31  2  0
 31 26  1  0
 29 32  1  0
M  END
> <From>
www.bindingDB.org

> <BindingDB Reactant_set_id>
50103595

> <Ligand InChI>
InChI=1S/C23H21FN6O2/c1-12-8-27-23-28-18-11-29(3)22(31)16-5-4-15(24)7-17(16)13(2)32-19-6-14(9-26-21(19)25)20(18)30(23)10-12/h4-10,13H,11H2,1-3H3,(H2,25,26)/t13-/m1/s1

> <Ligand InChI Key>
LOLWMDGFTABZFN-CYBMUJFWSA-N

> <BindingDB MonomerID>
50018841

> <BindingDB Ligand Name>
CHEMBL3286831

> <Target Name>
ALK tyrosine kinase receptor

> <Target Source Organism According to Curator or DataSource>
Homo sapiens

> <Ki (nM)>


> <IC50 (nM)>
 365

> <Kd (nM)>


> <EC50 (nM)>


> <kon (M-1-s-1)>


> <koff (s-1)>


> <pH>


> <Temp C>


> <Curation/DataSource>
ChEMBL

> <Article DOI>
10.1021/jm500261q

> <BindingDB Entry DOI>
10.7270/Q2K35W68

> <PMID>
24819116

> <PubChem AID>


> <Patent Number>


> <Authors>
Johnson, TW; Richardson, PF; Bailey, S; Brooun, A; Burke, BJ; Collins, MR; Cui, JJ; Deal, JG; Deng, YL; Dinh, D; Engstrom, LD; He, M; Hoffman, J; Hoffman, RL; Huang, Q; Kania, RS; Kath, JC; Lam, H; Lam, JL; Le, PT; Lingardo, L; Liu, W; McTigue, M; Palmer, CL; Sach, NW; Smeal, T; Smith, GL; Stewart, AE; Timofeevski, S; Zhu, H; Zhu, J; Zou, HY; Edwards, MP

> <Date of publication>
6/12/2014

> <Date in BindingDB>
2/11/2015

> <Institution>
Pfizer Inc

> <Link to Ligand in BindingDB>
http://www.bindingdb.org/bind/chemsearch/marvin/MolStructure.jsp?monomerid=50018841

> <Link to Ligand-Target Pair in BindingDB>
http://www.bindingdb.org/jsp/dbsearch/PrimarySearch_ki.jsp?energyterm=kJ/mole&tag=pol&polymerid=5809&target=ALK+tyrosine+kinase+receptor&column=ki&startPg=0&Increment=50&submit=Search

> <Link to Ligand-Target Pair in BindingDB>
http://www.bindingdb.org/jsp/dbsearch/PrimarySearch_ki.jsp?energyterm=kJ/mole&tag=r21&monomerid=50018841&enzyme=ALK+tyrosine+kinase+receptor&column=ki&startPg=0&Increment=50&submit=Search

> <Ligand HET ID in PDB>


> <PDB ID(s) for Ligand-Target Complex>


> <PubChem CID of Ligand>
89808125

> <PubChem SID of Ligand>
103929894

> <ChEBI ID of Ligand>


> <ChEMBL ID of Ligand>
CHEMBL3286831

> <DrugBank ID of Ligand>


> <IUPHAR_GRAC ID of Ligand>


> <KEGG ID of Ligand>


> <ZINC ID of Ligand>
ZINC36080038

> <Number of Protein Chains in Target (bigger than 1 implies a multichain complex)>
1

> <BindingDB Target Chain Sequence>
MGAIGLLWLLPLLLSTAAVGSGMGTGQRAGSPAAGPPLQPREPLSYSRLQRKSLAVDFVVPSLFRVYARDLLLPPSSSELKAGRPEARGSLALDCAPLLRLLGPAPGVSWTAGSPAPAEARTLSRVLKGGSVRKLRRAKQLVLELGEEAILEGCVGPPGEAAVGLLQFNLSELFSWWIRQGEGRLRIRLMPEKKASEVGREGRLSAAIRASQPRLLFQIFGTGHSSLESPTNMPSPSPDYFTWNLTWIMKDSFPFLSHRSRYGLECSFDFPCELEYSPPLHDLRNQSWSWRRIPSEEASQMDLLDGPGAERSKEMPRGSFLLLNTSADSKHTILSPWMRSSSEHCTLAVSVHRHLQPSGRYIAQLLPHNEAAREILLMPTPGKHGWTVLQGRIGRPDNPFRVALEYISSGNRSLSAVDFFALKNCSEGTSPGSKMALQSSFTCWNGTVLQLGQACDFHQDCAQGEDESQMCRKLPVGFYCNFEDGFCGWTQGTLSPHTPQWQVRTLKDARFQDHQDHALLLSTTDVPASESATVTSATFPAPIKSSPCELRMSWLIRGVLRGNVSLVLVENKTGKEQGRMVWHVAAYEGLSLWQWMVLPLLDVSDRFWLQMVAWWGQGSRAIVAFDNISISLDCYLTISGEDKILQNTAPKSRNLFERNPNKELKPGENSPRQTPIFDPTVHWLFTTCGASGPHGPTQAQCNNAYQNSNLSVEVGSEGPLKGIQIWKVPATDTYSISGYGAAGGKGGKNTMMRSHGVSVLGIFNLEKDDMLYILVGQQGEDACPSTNQLIQKVCIGENNVIEEEIRVNRSVHEWAGGGGGGGGATYVFKMKDGVPVPLIIAAGGGGRAYGAKTDTFHPERLENNSSVLGLNGNSGAAGGGGGWNDNTSLLWAGKSLQEGATGGHSCPQAMKKWGWETRGGFGGGGGGCSSGGGGGGYIGGNAASNNDPEMDGEDGVSFISPLGILYTPALKVMEGHGEVNIKHYLNCSHCEVDECHMDPESHKVICFCDHGTVLAEDGVSCIVSPTPEPHLPLSLILSVVTSALVAALVLAFSGIMIVYRRKHQELQAMQMELQSPEYKLSKLRTSTIMTDYNPNYCFAGKTSSISDLKEVPRKNITLIRGLGHGAFGEVYEGQVSGMPNDPSPLQVAVKTLPEVCSEQDELDFLMEALIISKFNHQNIVRCIGVSLQSLPRFILLELMAGGDLKSFLRETRPRPSQPSSLAMLDLLHVARDIACGCQYLEENHFIHRDIAARNCLLTCPGPGRVAKIGDFGMARDIYRASYYRKGGCAMLPVKWMPPEAFMEGIFTSKTDTWSFGVLLWEIFSLGYMPYPSKSNQEVLEFVTSGGRMDPPKNCPGPVYRIMTQCWQHQPEDRPNFAIILERIEYCTQDPDVINTALPIEYGPLVEEEEKVPVRPKDPEGVPPLLVSQQAKREEERSPAAPPPLPTTSSGKAAKKPTAAEISVRVPRGPAVEGGHVNMAFSQSNPPSELHKVHGSRNKPTSLWNPTYGSWFTEKPTKKNNPIAKKEPHDRGNLGLEGSCTVPPNVATGRLPGASLLLEPSSLTANMKEVPLFRLRHFPCGNVNYGYQQQGLPLEAATAPGAGHYEDTILKSKNSMNQPGP

> <PDB ID(s) of Target Chain>
2XB7,2XBA,3AOX,5FTO,5FTQ,6E0R,6EBW,6EDL,6MX8,7JY4,7JYR,7JYS,7JYT,7LS0,7MZW,7MZY,7N00,7NX3,7NX4,8ARJ

> <UniProt (SwissProt) Recommended Name of Target Chain>
ALK tyrosine kinase receptor

> <UniProt (SwissProt) Entry Name of Target Chain>
ALK_HUMAN

> <UniProt (SwissProt) Primary ID of Target Chain>
Q9UM73

> <UniProt (SwissProt) Secondary ID(s) of Target Chain>
A6P4T4 A6P4V4 Q4ZFX9 Q53QQ6 Q53RZ4 Q59FI3 Q9Y4K6

> <UniProt (SwissProt) Alternative ID(s) of Target Chain>


> <UniProt (TrEMBL) Submitted Name of Target Chain>


> <UniProt (TrEMBL) Entry Name of Target Chain>


> <UniProt (TrEMBL) Primary ID of Target Chain>


> <UniProt (TrEMBL) Secondary ID(s) of Target Chain>


> <UniProt (TrEMBL) Alternative ID(s) of Target Chain>


$$$$
 
  Mrv0541 11221423062D          

 30 33  0  0  0  0            999 V2000
   -0.9640    1.6774    0.0000 C   0  0  0  0  0  0  0  0  0  0  0  0
   -0.9653    0.8499    0.0000 C   0  0  0  0  0  0  0  0  0  0  0  0
   -0.2523    0.4370    0.0000 C   0  0  0  0  0  0  0  0  0  0  0  0
    0.4669    0.8504    0.0000 C   0  0  0  0  0  0  0  0  0  0  0  0
    0.4637    1.6815    0.0000 C   0  0  0  0  0  0  0  0  0  0  0  0
   -0.2543    2.0903    0.0000 N   0  0  0  0  0  0  0  0  0  0  0  0
   -1.6814    0.4425    0.0000 C   0  0  0  0  0  0  0  0  0  0  0  0
   -2.4724    0.6769    0.0000 C   0  0  0  0  0  0  0  0  0  0  0  0
   -2.9398   -0.0030    0.0000 N   0  0  0  0  0  0  0  0  0  0  0  0
   -2.4376   -0.6576    0.0000 N   0  0  0  0  0  0  0  0  0  0  0  0
   -1.6599   -0.3821    0.0000 C   0  0  0  0  0  0  0  0  0  0  0  0
   -3.7651   -0.0266    0.0000 C   0  0  0  0  0  0  0  0  0  0  0  0
   -4.1948    0.6787    0.0000 C   0  0  0  0  0  0  0  0  0  0  0  0
   -5.0160    0.6593    0.0000 C   0  0  0  0  0  0  0  0  0  0  0  0
   -5.4137   -0.0639    0.0000 N   0  0  0  0  0  0  0  0  0  0  0  0
   -4.9839   -0.7692    0.0000 C   0  0  0  0  0  0  0  0  0  0  0  0
   -4.1564   -0.7513    0.0000 C   0  0  0  0  0  0  0  0  0  0  0  0
    1.1762    2.0975    0.0000 N   0  0  0  0  0  0  0  0  0  0  0  0
    1.1818    0.4386    0.0000 O   0  0  0  0  0  0  0  0  0  0  0  0
    1.1825   -0.3864    0.0000 C   0  0  1  0  0  0  0  0  0  0  0  0
    1.8973   -0.7982    0.0000 C   0  0  0  0  0  0  0  0  0  0  0  0
    0.4685   -0.7996    0.0000 C   0  0  0  0  0  0  0  0  0  0  0  0
    1.8953   -1.6235    0.0000 C   0  0  0  0  0  0  0  0  0  0  0  0
    2.6093   -2.0354    0.0000 C   0  0  0  0  0  0  0  0  0  0  0  0
    3.3244   -1.6221    0.0000 C   0  0  0  0  0  0  0  0  0  0  0  0
    3.3210   -0.7930    0.0000 C   0  0  0  0  0  0  0  0  0  0  0  0
    2.6065   -0.3849    0.0000 C   0  0  0  0  0  0  0  0  0  0  0  0
    2.6028    0.4401    0.0000 Cl  0  0  0  0  0  0  0  0  0  0  0  0
    4.0337   -0.3773    0.0000 F   0  0  0  0  0  0  0  0  0  0  0  0
    1.1806   -2.0354    0.0000 Cl  0  0  0  0  0  0  0  0  0  0  0  0
 12 17  1  0  0  0  0
 13 14  1  0  0  0  0
 14 15  1  0  0  0  0
 15 16  1  0  0  0  0
 16 17  1  0  0  0  0
  9 12  1  0  0  0  0
  4  5  2  0  0  0  0
  5 18  1  0  0  0  0
  2  3  2  0  0  0  0
  4 19  1  0  0  0  0
  8  9  1  0  0  0  0
 20 19  1  0  0  0  0
  9 10  1  0  0  0  0
 20 21  1  0  0  0  0
 10 11  2  0  0  0  0
 20 22  1  1  0  0  0
 11  7  1  0  0  0  0
 21 23  2  0  0  0  0
  2  7  1  0  0  0  0
 23 24  1  0  0  0  0
 12 13  1  0  0  0  0
 24 25  2  0  0  0  0
  5  6  1  0  0  0  0
 25 26  1  0  0  0  0
  6  1  2  0  0  0  0
 26 27  2  0  0  0  0
 27 21  1  0  0  0  0
  7  8  2  0  0  0  0
 27 28  1  0  0  0  0
  1  2  1  0  0  0  0
 26 29  1  0  0  0  0
  3  4  1  0  0  0  0
 23 30  1  0  0  0  0
M  END
> <From>
www.bindingDB.org

> <BindingDB Reactant_set_id>
50103614

> <Ligand InChI>
InChI=1S/C21H22Cl2FN5O/c1-12(19-16(22)2-3-17(24)20(19)23)30-18-8-13(9-27-21(18)25)14-10-28-29(11-14)15-4-6-26-7-5-15/h2-3,8-12,15,26H,4-7H2,1H3,(H2,25,27)/t12-/m1/s1

> <Ligand InChI Key>
KTEIFNKAUNYNJU-GFCCVEGCSA-N

> <BindingDB MonomerID>
50306682

> <BindingDB Ligand Name>
(R)-3-(1-(2,6-dichloro-3-fluorophenyl)ethoxy)-5-(1-(piperidin-4-yl)-1H-pyrazol-4-yl)pyridin-2-amine::3-(2,6-dichloro-3-fluorobenzyloxy)-5-(1-(piperidin-4-yl)-1H-pyrazol-4-yl)pyridin-2-amine::3-[(1R)-1-(2,6-dichloro-3-fluorophenyl)ethoxy]-5-(1-piperidin-4-yl-1H-pyrazol-4-yl)pyridin-2-amine::CHEMBL601719::CRIZOTINIB::PF-2341066::US10370379, Crizotinib::US10543199, Compound Crizotinib::US10780082, Compound Crizotinib::US11059827, Compound Crizotinib::US11517561, Compound Crizotinib::US9126941, PF-2341066::US9199944, Crizotinib::US9226923, Crizotinib

> <Target Name>
ALK tyrosine kinase receptor

> <Target Source Organism According to Curator or DataSource>
Homo sapiens

> <Ki (nM)>


> <IC50 (nM)>
 478

> <Kd (nM)>


> <EC50 (nM)>


> <kon (M-1-s-1)>


> <koff (s-1)>


> <pH>


> <Temp C>


> <Curation/DataSource>
ChEMBL

> <Article DOI>
10.1021/jm500261q

> <BindingDB Entry DOI>
10.7270/Q2K35W68

> <PMID>
24819116

> <PubChem AID>


> <Patent Number>


> <Authors>
Johnson, TW; Richardson, PF; Bailey, S; Brooun, A; Burke, BJ; Collins, MR; Cui, JJ; Deal, JG; Deng, YL; Dinh, D; Engstrom, LD; He, M; Hoffman, J; Hoffman, RL; Huang, Q; Kania, RS; Kath, JC; Lam, H; Lam, JL; Le, PT; Lingardo, L; Liu, W; McTigue, M; Palmer, CL; Sach, NW; Smeal, T; Smith, GL; Stewart, AE; Timofeevski, S; Zhu, H; Zhu, J; Zou, HY; Edwards, MP

> <Date of publication>
6/12/2014

> <Date in BindingDB>
2/11/2015

> <Institution>
Pfizer Inc

> <Link to Ligand in BindingDB>
http://www.bindingdb.org/bind/chemsearch/marvin/MolStructure.jsp?monomerid=50306682

> <Link to Ligand-Target Pair in BindingDB>
http://www.bindingdb.org/jsp/dbsearch/PrimarySearch_ki.jsp?energyterm=kJ/mole&tag=pol&polymerid=5809&target=ALK+tyrosine+kinase+receptor&column=ki&startPg=0&Increment=50&submit=Search

> <Link to Ligand-Target Pair in BindingDB>
http://www.bindingdb.org/jsp/dbsearch/PrimarySearch_ki.jsp?energyterm=kJ/mole&tag=r21&monomerid=50306682&enzyme=ALK+tyrosine+kinase+receptor&column=ki&startPg=0&Increment=50&submit=Search

> <Ligand HET ID in PDB>
VGH

> <PDB ID(s) for Ligand-Target Complex>
2YFX,5AAA,5AAC,5AAB,4ANS,4ANQ,2XP2,2WGJ,3ZBF,4C9W,6IMZ

> <PubChem CID of Ligand>
11626560

> <PubChem SID of Ligand>
104161043

> <ChEBI ID of Ligand>
64310

> <ChEMBL ID of Ligand>
CHEMBL601719

> <DrugBank ID of Ligand>
DB08700

> <IUPHAR_GRAC ID of Ligand>
4903

> <KEGG ID of Ligand>


> <ZINC ID of Ligand>
ZINC35902489

> <Number of Protein Chains in Target (bigger than 1 implies a multichain complex)>
1

> <BindingDB Target Chain Sequence>
MGAIGLLWLLPLLLSTAAVGSGMGTGQRAGSPAAGPPLQPREPLSYSRLQRKSLAVDFVVPSLFRVYARDLLLPPSSSELKAGRPEARGSLALDCAPLLRLLGPAPGVSWTAGSPAPAEARTLSRVLKGGSVRKLRRAKQLVLELGEEAILEGCVGPPGEAAVGLLQFNLSELFSWWIRQGEGRLRIRLMPEKKASEVGREGRLSAAIRASQPRLLFQIFGTGHSSLESPTNMPSPSPDYFTWNLTWIMKDSFPFLSHRSRYGLECSFDFPCELEYSPPLHDLRNQSWSWRRIPSEEASQMDLLDGPGAERSKEMPRGSFLLLNTSADSKHTILSPWMRSSSEHCTLAVSVHRHLQPSGRYIAQLLPHNEAAREILLMPTPGKHGWTVLQGRIGRPDNPFRVALEYISSGNRSLSAVDFFALKNCSEGTSPGSKMALQSSFTCWNGTVLQLGQACDFHQDCAQGEDESQMCRKLPVGFYCNFEDGFCGWTQGTLSPHTPQWQVRTLKDARFQDHQDHALLLSTTDVPASESATVTSATFPAPIKSSPCELRMSWLIRGVLRGNVSLVLVENKTGKEQGRMVWHVAAYEGLSLWQWMVLPLLDVSDRFWLQMVAWWGQGSRAIVAFDNISISLDCYLTISGEDKILQNTAPKSRNLFERNPNKELKPGENSPRQTPIFDPTVHWLFTTCGASGPHGPTQAQCNNAYQNSNLSVEVGSEGPLKGIQIWKVPATDTYSISGYGAAGGKGGKNTMMRSHGVSVLGIFNLEKDDMLYILVGQQGEDACPSTNQLIQKVCIGENNVIEEEIRVNRSVHEWAGGGGGGGGATYVFKMKDGVPVPLIIAAGGGGRAYGAKTDTFHPERLENNSSVLGLNGNSGAAGGGGGWNDNTSLLWAGKSLQEGATGGHSCPQAMKKWGWETRGGFGGGGGGCSSGGGGGGYIGGNAASNNDPEMDGEDGVSFISPLGILYTPALKVMEGHGEVNIKHYLNCSHCEVDECHMDPESHKVICFCDHGTVLAEDGVSCIVSPTPEPHLPLSLILSVVTSALVAALVLAFSGIMIVYRRKHQELQAMQMELQSPEYKLSKLRTSTIMTDYNPNYCFAGKTSSISDLKEVPRKNITLIRGLGHGAFGEVYEGQVSGMPNDPSPLQVAVKTLPEVCSEQDELDFLMEALIISKFNHQNIVRCIGVSLQSLPRFILLELMAGGDLKSFLRETRPRPSQPSSLAMLDLLHVARDIACGCQYLEENHFIHRDIAARNCLLTCPGPGRVAKIGDFGMARDIYRASYYRKGGCAMLPVKWMPPEAFMEGIFTSKTDTWSFGVLLWEIFSLGYMPYPSKSNQEVLEFVTSGGRMDPPKNCPGPVYRIMTQCWQHQPEDRPNFAIILERIEYCTQDPDVINTALPIEYGPLVEEEEKVPVRPKDPEGVPPLLVSQQAKREEERSPAAPPPLPTTSSGKAAKKPTAAEISVRVPRGPAVEGGHVNMAFSQSNPPSELHKVHGSRNKPTSLWNPTYGSWFTEKPTKKNNPIAKKEPHDRGNLGLEGSCTVPPNVATGRLPGASLLLEPSSLTANMKEVPLFRLRHFPCGNVNYGYQQQGLPLEAATAPGAGHYEDTILKSKNSMNQPGP

> <PDB ID(s) of Target Chain>
2XB7,2XBA,3AOX,5FTO,5FTQ,6E0R,6EBW,6EDL,6MX8,7JY4,7JYR,7JYS,7JYT,7LS0,7MZW,7MZY,7N00,7NX3,7NX4,8ARJ

> <UniProt (SwissProt) Recommended Name of Target Chain>
ALK tyrosine kinase receptor

> <UniProt (SwissProt) Entry Name of Target Chain>
ALK_HUMAN

> <UniProt (SwissProt) Primary ID of Target Chain>
Q9UM73

> <UniProt (SwissProt) Secondary ID(s) of Target Chain>
A6P4T4 A6P4V4 Q4ZFX9 Q53QQ6 Q53RZ4 Q59FI3 Q9Y4K6

> <UniProt (SwissProt) Alternative ID(s) of Target Chain>


> <UniProt (TrEMBL) Submitted Name of Target Chain>


> <UniProt (TrEMBL) Entry Name of Target Chain>


> <UniProt (TrEMBL) Primary ID of Target Chain>


> <UniProt (TrEMBL) Secondary ID(s) of Target Chain>


> <UniProt (TrEMBL) Alternative ID(s) of Target Chain>


$$$$

  SciTegic09261414532D

 27 30  0  0  0  0            999 V2000
    6.7331  -10.3013    0.0000 C   0  0
    5.2834  -11.0938    0.0000 C   0  0
    5.3027  -10.2678    0.0000 C   0  0
    6.0276   -9.8716    0.0000 C   0  0
    6.7139  -11.1272    0.0000 C   0  0
    5.9890  -11.5234    0.0000 N   0  0
    4.5585  -11.4899    0.0000 N   0  0
    4.5972   -9.8382    0.0000 O   0  0
    7.4556   -9.9050    0.0000 C   0  0
    8.2340  -10.1772    0.0000 N   0  0
    8.7334   -9.5209    0.0000 N   0  0
    8.2636   -8.8433    0.0000 C   0  0
    8.4715  -10.9673    0.0000 C   0  0
    3.8732  -10.2338    0.0000 C   0  0
    3.1685   -9.8048    0.0000 C   0  0
    3.1927   -8.9799    0.0000 C   0  0
    2.4888   -8.5508    0.0000 C   0  0
    1.7640   -8.9466    0.0000 C   0  0
    1.7472   -9.7757    0.0000 C   0  0
    2.4517  -10.2009    0.0000 C   0  0
    3.9177   -8.5864    0.0000 O   0  0
    4.6211   -9.0176    0.0000 C   0  0
    5.3461   -8.6242    0.0000 C   0  0
    6.0495   -9.0554    0.0000 C   0  0
    1.0247  -10.1740    0.0000 F   0  0
    6.7746   -8.6620    0.0000 C   0  0
    7.4779   -9.0932    0.0000 C   0  0
  2  3  1  0
  3  4  2  0
  4  1  1  0
  1  5  2  0
  5  6  1  0
  2  6  2  0
  2  7  1  0
  3  8  1  0
  1  9  1  0
 27  9  2  0
  9 10  1  0
 10 11  1  0
 11 12  2  0
 12 27  1  0
 10 13  1  0
  8 14  1  0
 14 15  1  0
 15 16  2  0
 16 17  1  0
 17 18  2  0
 18 19  1  0
 19 20  2  0
 20 15  1  0
 16 21  1  0
 21 22  1  0
 22 23  1  0
 23 24  1  0
 19 25  1  0
 24 26  1  0
 26 27  1  0
M  END
> <From>
www.bindingDB.org

> <BindingDB Reactant_set_id>
50103690

> <Ligand InChI>
InChI=1S/C20H21FN4O2/c1-25-19-13(11-24-25)4-2-3-7-26-17-6-5-16(21)8-15(17)12-27-18-9-14(19)10-23-20(18)22/h5-6,8-11H,2-4,7,12H2,1H3,(H2,22,23)

> <Ligand InChI Key>
XZDITQKBHNRUDE-UHFFFAOYSA-N

> <BindingDB MonomerID>
50018827

> <BindingDB Ligand Name>
CHEMBL3286817

> <Target Name>
ALK tyrosine kinase receptor

> <Target Source Organism According to Curator or DataSource>
Homo sapiens

> <Ki (nM)>


> <IC50 (nM)>
 524

> <Kd (nM)>


> <EC50 (nM)>


> <kon (M-1-s-1)>


> <koff (s-1)>


> <pH>


> <Temp C>


> <Curation/DataSource>
ChEMBL

> <Article DOI>
10.1021/jm500261q

> <BindingDB Entry DOI>
10.7270/Q2K35W68

> <PMID>
24819116

> <PubChem AID>


> <Patent Number>


> <Authors>
Johnson, TW; Richardson, PF; Bailey, S; Brooun, A; Burke, BJ; Collins, MR; Cui, JJ; Deal, JG; Deng, YL; Dinh, D; Engstrom, LD; He, M; Hoffman, J; Hoffman, RL; Huang, Q; Kania, RS; Kath, JC; Lam, H; Lam, JL; Le, PT; Lingardo, L; Liu, W; McTigue, M; Palmer, CL; Sach, NW; Smeal, T; Smith, GL; Stewart, AE; Timofeevski, S; Zhu, H; Zhu, J; Zou, HY; Edwards, MP

> <Date of publication>
6/12/2014

> <Date in BindingDB>
2/11/2015

> <Institution>
Pfizer Inc

> <Link to Ligand in BindingDB>
http://www.bindingdb.org/bind/chemsearch/marvin/MolStructure.jsp?monomerid=50018827

> <Link to Ligand-Target Pair in BindingDB>
http://www.bindingdb.org/jsp/dbsearch/PrimarySearch_ki.jsp?energyterm=kJ/mole&tag=pol&polymerid=5809&target=ALK+tyrosine+kinase+receptor&column=ki&startPg=0&Increment=50&submit=Search

> <Link to Ligand-Target Pair in BindingDB>
http://www.bindingdb.org/jsp/dbsearch/PrimarySearch_ki.jsp?energyterm=kJ/mole&tag=r21&monomerid=50018827&enzyme=ALK+tyrosine+kinase+receptor&column=ki&startPg=0&Increment=50&submit=Search

> <Ligand HET ID in PDB>


> <PDB ID(s) for Ligand-Target Complex>


> <PubChem CID of Ligand>
71732097

> <PubChem SID of Ligand>
103929880

> <ChEBI ID of Ligand>


> <ChEMBL ID of Ligand>
CHEMBL3286817

> <DrugBank ID of Ligand>


> <IUPHAR_GRAC ID of Ligand>


> <KEGG ID of Ligand>


> <ZINC ID of Ligand>
ZINC33891520

> <Number of Protein Chains in Target (bigger than 1 implies a multichain complex)>
1

> <BindingDB Target Chain Sequence>
MGAIGLLWLLPLLLSTAAVGSGMGTGQRAGSPAAGPPLQPREPLSYSRLQRKSLAVDFVVPSLFRVYARDLLLPPSSSELKAGRPEARGSLALDCAPLLRLLGPAPGVSWTAGSPAPAEARTLSRVLKGGSVRKLRRAKQLVLELGEEAILEGCVGPPGEAAVGLLQFNLSELFSWWIRQGEGRLRIRLMPEKKASEVGREGRLSAAIRASQPRLLFQIFGTGHSSLESPTNMPSPSPDYFTWNLTWIMKDSFPFLSHRSRYGLECSFDFPCELEYSPPLHDLRNQSWSWRRIPSEEASQMDLLDGPGAERSKEMPRGSFLLLNTSADSKHTILSPWMRSSSEHCTLAVSVHRHLQPSGRYIAQLLPHNEAAREILLMPTPGKHGWTVLQGRIGRPDNPFRVALEYISSGNRSLSAVDFFALKNCSEGTSPGSKMALQSSFTCWNGTVLQLGQACDFHQDCAQGEDESQMCRKLPVGFYCNFEDGFCGWTQGTLSPHTPQWQVRTLKDARFQDHQDHALLLSTTDVPASESATVTSATFPAPIKSSPCELRMSWLIRGVLRGNVSLVLVENKTGKEQGRMVWHVAAYEGLSLWQWMVLPLLDVSDRFWLQMVAWWGQGSRAIVAFDNISISLDCYLTISGEDKILQNTAPKSRNLFERNPNKELKPGENSPRQTPIFDPTVHWLFTTCGASGPHGPTQAQCNNAYQNSNLSVEVGSEGPLKGIQIWKVPATDTYSISGYGAAGGKGGKNTMMRSHGVSVLGIFNLEKDDMLYILVGQQGEDACPSTNQLIQKVCIGENNVIEEEIRVNRSVHEWAGGGGGGGGATYVFKMKDGVPVPLIIAAGGGGRAYGAKTDTFHPERLENNSSVLGLNGNSGAAGGGGGWNDNTSLLWAGKSLQEGATGGHSCPQAMKKWGWETRGGFGGGGGGCSSGGGGGGYIGGNAASNNDPEMDGEDGVSFISPLGILYTPALKVMEGHGEVNIKHYLNCSHCEVDECHMDPESHKVICFCDHGTVLAEDGVSCIVSPTPEPHLPLSLILSVVTSALVAALVLAFSGIMIVYRRKHQELQAMQMELQSPEYKLSKLRTSTIMTDYNPNYCFAGKTSSISDLKEVPRKNITLIRGLGHGAFGEVYEGQVSGMPNDPSPLQVAVKTLPEVCSEQDELDFLMEALIISKFNHQNIVRCIGVSLQSLPRFILLELMAGGDLKSFLRETRPRPSQPSSLAMLDLLHVARDIACGCQYLEENHFIHRDIAARNCLLTCPGPGRVAKIGDFGMARDIYRASYYRKGGCAMLPVKWMPPEAFMEGIFTSKTDTWSFGVLLWEIFSLGYMPYPSKSNQEVLEFVTSGGRMDPPKNCPGPVYRIMTQCWQHQPEDRPNFAIILERIEYCTQDPDVINTALPIEYGPLVEEEEKVPVRPKDPEGVPPLLVSQQAKREEERSPAAPPPLPTTSSGKAAKKPTAAEISVRVPRGPAVEGGHVNMAFSQSNPPSELHKVHGSRNKPTSLWNPTYGSWFTEKPTKKNNPIAKKEPHDRGNLGLEGSCTVPPNVATGRLPGASLLLEPSSLTANMKEVPLFRLRHFPCGNVNYGYQQQGLPLEAATAPGAGHYEDTILKSKNSMNQPGP

> <PDB ID(s) of Target Chain>
2XB7,2XBA,3AOX,5FTO,5FTQ,6E0R,6EBW,6EDL,6MX8,7JY4,7JYR,7JYS,7JYT,7LS0,7MZW,7MZY,7N00,7NX3,7NX4,8ARJ

> <UniProt (SwissProt) Recommended Name of Target Chain>
ALK tyrosine kinase receptor

> <UniProt (SwissProt) Entry Name of Target Chain>
ALK_HUMAN

> <UniProt (SwissProt) Primary ID of Target Chain>
Q9UM73

> <UniProt (SwissProt) Secondary ID(s) of Target Chain>
A6P4T4 A6P4V4 Q4ZFX9 Q53QQ6 Q53RZ4 Q59FI3 Q9Y4K6

> <UniProt (SwissProt) Alternative ID(s) of Target Chain>


> <UniProt (TrEMBL) Submitted Name of Target Chain>


> <UniProt (TrEMBL) Entry Name of Target Chain>


> <UniProt (TrEMBL) Primary ID of Target Chain>


> <UniProt (TrEMBL) Secondary ID(s) of Target Chain>


> <UniProt (TrEMBL) Alternative ID(s) of Target Chain>


$$$$
 
  Mrv0541 11221423062D          

 30 33  0  0  0  0            999 V2000
   -0.9640    1.6774    0.0000 C   0  0  0  0  0  0  0  0  0  0  0  0
   -0.9653    0.8499    0.0000 C   0  0  0  0  0  0  0  0  0  0  0  0
   -0.2523    0.4370    0.0000 C   0  0  0  0  0  0  0  0  0  0  0  0
    0.4669    0.8504    0.0000 C   0  0  0  0  0  0  0  0  0  0  0  0
    0.4637    1.6815    0.0000 C   0  0  0  0  0  0  0  0  0  0  0  0
   -0.2543    2.0903    0.0000 N   0  0  0  0  0  0  0  0  0  0  0  0
   -1.6814    0.4425    0.0000 C   0  0  0  0  0  0  0  0  0  0  0  0
   -2.4724    0.6769    0.0000 C   0  0  0  0  0  0  0  0  0  0  0  0
   -2.9398   -0.0030    0.0000 N   0  0  0  0  0  0  0  0  0  0  0  0
   -2.4376   -0.6576    0.0000 N   0  0  0  0  0  0  0  0  0  0  0  0
   -1.6599   -0.3821    0.0000 C   0  0  0  0  0  0  0  0  0  0  0  0
   -3.7651   -0.0266    0.0000 C   0  0  0  0  0  0  0  0  0  0  0  0
   -4.1948    0.6787    0.0000 C   0  0  0  0  0  0  0  0  0  0  0  0
   -5.0160    0.6593    0.0000 C   0  0  0  0  0  0  0  0  0  0  0  0
   -5.4137   -0.0639    0.0000 N   0  0  0  0  0  0  0  0  0  0  0  0
   -4.9839   -0.7692    0.0000 C   0  0  0  0  0  0  0  0  0  0  0  0
   -4.1564   -0.7513    0.0000 C   0  0  0  0  0  0  0  0  0  0  0  0
    1.1762    2.0975    0.0000 N   0  0  0  0  0  0  0  0  0  0  0  0
    1.1818    0.4386    0.0000 O   0  0  0  0  0  0  0  0  0  0  0  0
    1.1825   -0.3864    0.0000 C   0  0  1  0  0  0  0  0  0  0  0  0
    1.8973   -0.7982    0.0000 C   0  0  0  0  0  0  0  0  0  0  0  0
    0.4685   -0.7996    0.0000 C   0  0  0  0  0  0  0  0  0  0  0  0
    1.8953   -1.6235    0.0000 C   0  0  0  0  0  0  0  0  0  0  0  0
    2.6093   -2.0354    0.0000 C   0  0  0  0  0  0  0  0  0  0  0  0
    3.3244   -1.6221    0.0000 C   0  0  0  0  0  0  0  0  0  0  0  0
    3.3210   -0.7930    0.0000 C   0  0  0  0  0  0  0  0  0  0  0  0
    2.6065   -0.3849    0.0000 C   0  0  0  0  0  0  0  0  0  0  0  0
    2.6028    0.4401    0.0000 Cl  0  0  0  0  0  0  0  0  0  0  0  0
    4.0337   -0.3773    0.0000 F   0  0  0  0  0  0  0  0  0  0  0  0
    1.1806   -2.0354    0.0000 Cl  0  0  0  0  0  0  0  0  0  0  0  0
 12 17  1  0  0  0  0
 13 14  1  0  0  0  0
 14 15  1  0  0  0  0
 15 16  1  0  0  0  0
 16 17  1  0  0  0  0
  9 12  1  0  0  0  0
  4  5  2  0  0  0  0
  5 18  1  0  0  0  0
  2  3  2  0  0  0  0
  4 19  1  0  0  0  0
  8  9  1  0  0  0  0
 20 19  1  0  0  0  0
  9 10  1  0  0  0  0
 20 21  1  0  0  0  0
 10 11  2  0  0  0  0
 20 22  1  1  0  0  0
 11  7  1  0  0  0  0
 21 23  2  0  0  0  0
  2  7  1  0  0  0  0
 23 24  1  0  0  0  0
 12 13  1  0  0  0  0
 24 25  2  0  0  0  0
  5  6  1  0  0  0  0
 25 26  1  0  0  0  0
  6  1  2  0  0  0  0
 26 27  2  0  0  0  0
 27 21  1  0  0  0  0
  7  8  2  0  0  0  0
 27 28  1  0  0  0  0
  1  2  1  0  0  0  0
 26 29  1  0  0  0  0
  3  4  1  0  0  0  0
 23 30  1  0  0  0  0
M  END
> <From>
www.bindingDB.org

> <BindingDB Reactant_set_id>
50103617

> <Ligand InChI>
InChI=1S/C21H22Cl2FN5O/c1-12(19-16(22)2-3-17(24)20(19)23)30-18-8-13(9-27-21(18)25)14-10-28-29(11-14)15-4-6-26-7-5-15/h2-3,8-12,15,26H,4-7H2,1H3,(H2,25,27)/t12-/m1/s1

> <Ligand InChI Key>
KTEIFNKAUNYNJU-GFCCVEGCSA-N

> <BindingDB MonomerID>
50306682

> <BindingDB Ligand Name>
(R)-3-(1-(2,6-dichloro-3-fluorophenyl)ethoxy)-5-(1-(piperidin-4-yl)-1H-pyrazol-4-yl)pyridin-2-amine::3-(2,6-dichloro-3-fluorobenzyloxy)-5-(1-(piperidin-4-yl)-1H-pyrazol-4-yl)pyridin-2-amine::3-[(1R)-1-(2,6-dichloro-3-fluorophenyl)ethoxy]-5-(1-piperidin-4-yl-1H-pyrazol-4-yl)pyridin-2-amine::CHEMBL601719::CRIZOTINIB::PF-2341066::US10370379, Crizotinib::US10543199, Compound Crizotinib::US10780082, Compound Crizotinib::US11059827, Compound Crizotinib::US11517561, Compound Crizotinib::US9126941, PF-2341066::US9199944, Crizotinib::US9226923, Crizotinib

> <Target Name>
ALK tyrosine kinase receptor

> <Target Source Organism According to Curator or DataSource>
Homo sapiens

> <Ki (nM)>


> <IC50 (nM)>
 605

> <Kd (nM)>


> <EC50 (nM)>


> <kon (M-1-s-1)>


> <koff (s-1)>


> <pH>


> <Temp C>


> <Curation/DataSource>
ChEMBL

> <Article DOI>
10.1021/jm500261q

> <BindingDB Entry DOI>
10.7270/Q2K35W68

> <PMID>
24819116

> <PubChem AID>


> <Patent Number>


> <Authors>
Johnson, TW; Richardson, PF; Bailey, S; Brooun, A; Burke, BJ; Collins, MR; Cui, JJ; Deal, JG; Deng, YL; Dinh, D; Engstrom, LD; He, M; Hoffman, J; Hoffman, RL; Huang, Q; Kania, RS; Kath, JC; Lam, H; Lam, JL; Le, PT; Lingardo, L; Liu, W; McTigue, M; Palmer, CL; Sach, NW; Smeal, T; Smith, GL; Stewart, AE; Timofeevski, S; Zhu, H; Zhu, J; Zou, HY; Edwards, MP

> <Date of publication>
6/12/2014

> <Date in BindingDB>
2/11/2015

> <Institution>
Pfizer Inc

> <Link to Ligand in BindingDB>
http://www.bindingdb.org/bind/chemsearch/marvin/MolStructure.jsp?monomerid=50306682

> <Link to Ligand-Target Pair in BindingDB>
http://www.bindingdb.org/jsp/dbsearch/PrimarySearch_ki.jsp?energyterm=kJ/mole&tag=pol&polymerid=5809&target=ALK+tyrosine+kinase+receptor&column=ki&startPg=0&Increment=50&submit=Search

> <Link to Ligand-Target Pair in BindingDB>
http://www.bindingdb.org/jsp/dbsearch/PrimarySearch_ki.jsp?energyterm=kJ/mole&tag=r21&monomerid=50306682&enzyme=ALK+tyrosine+kinase+receptor&column=ki&startPg=0&Increment=50&submit=Search

> <Ligand HET ID in PDB>
VGH

> <PDB ID(s) for Ligand-Target Complex>
2YFX,5AAA,5AAC,5AAB,4ANS,4ANQ,2XP2,2WGJ,3ZBF,4C9W,6IMZ

> <PubChem CID of Ligand>
11626560

> <PubChem SID of Ligand>
104161043

> <ChEBI ID of Ligand>
64310

> <ChEMBL ID of Ligand>
CHEMBL601719

> <DrugBank ID of Ligand>
DB08700

> <IUPHAR_GRAC ID of Ligand>
4903

> <KEGG ID of Ligand>


> <ZINC ID of Ligand>
ZINC35902489

> <Number of Protein Chains in Target (bigger than 1 implies a multichain complex)>
1

> <BindingDB Target Chain Sequence>
MGAIGLLWLLPLLLSTAAVGSGMGTGQRAGSPAAGPPLQPREPLSYSRLQRKSLAVDFVVPSLFRVYARDLLLPPSSSELKAGRPEARGSLALDCAPLLRLLGPAPGVSWTAGSPAPAEARTLSRVLKGGSVRKLRRAKQLVLELGEEAILEGCVGPPGEAAVGLLQFNLSELFSWWIRQGEGRLRIRLMPEKKASEVGREGRLSAAIRASQPRLLFQIFGTGHSSLESPTNMPSPSPDYFTWNLTWIMKDSFPFLSHRSRYGLECSFDFPCELEYSPPLHDLRNQSWSWRRIPSEEASQMDLLDGPGAERSKEMPRGSFLLLNTSADSKHTILSPWMRSSSEHCTLAVSVHRHLQPSGRYIAQLLPHNEAAREILLMPTPGKHGWTVLQGRIGRPDNPFRVALEYISSGNRSLSAVDFFALKNCSEGTSPGSKMALQSSFTCWNGTVLQLGQACDFHQDCAQGEDESQMCRKLPVGFYCNFEDGFCGWTQGTLSPHTPQWQVRTLKDARFQDHQDHALLLSTTDVPASESATVTSATFPAPIKSSPCELRMSWLIRGVLRGNVSLVLVENKTGKEQGRMVWHVAAYEGLSLWQWMVLPLLDVSDRFWLQMVAWWGQGSRAIVAFDNISISLDCYLTISGEDKILQNTAPKSRNLFERNPNKELKPGENSPRQTPIFDPTVHWLFTTCGASGPHGPTQAQCNNAYQNSNLSVEVGSEGPLKGIQIWKVPATDTYSISGYGAAGGKGGKNTMMRSHGVSVLGIFNLEKDDMLYILVGQQGEDACPSTNQLIQKVCIGENNVIEEEIRVNRSVHEWAGGGGGGGGATYVFKMKDGVPVPLIIAAGGGGRAYGAKTDTFHPERLENNSSVLGLNGNSGAAGGGGGWNDNTSLLWAGKSLQEGATGGHSCPQAMKKWGWETRGGFGGGGGGCSSGGGGGGYIGGNAASNNDPEMDGEDGVSFISPLGILYTPALKVMEGHGEVNIKHYLNCSHCEVDECHMDPESHKVICFCDHGTVLAEDGVSCIVSPTPEPHLPLSLILSVVTSALVAALVLAFSGIMIVYRRKHQELQAMQMELQSPEYKLSKLRTSTIMTDYNPNYCFAGKTSSISDLKEVPRKNITLIRGLGHGAFGEVYEGQVSGMPNDPSPLQVAVKTLPEVCSEQDELDFLMEALIISKFNHQNIVRCIGVSLQSLPRFILLELMAGGDLKSFLRETRPRPSQPSSLAMLDLLHVARDIACGCQYLEENHFIHRDIAARNCLLTCPGPGRVAKIGDFGMARDIYRASYYRKGGCAMLPVKWMPPEAFMEGIFTSKTDTWSFGVLLWEIFSLGYMPYPSKSNQEVLEFVTSGGRMDPPKNCPGPVYRIMTQCWQHQPEDRPNFAIILERIEYCTQDPDVINTALPIEYGPLVEEEEKVPVRPKDPEGVPPLLVSQQAKREEERSPAAPPPLPTTSSGKAAKKPTAAEISVRVPRGPAVEGGHVNMAFSQSNPPSELHKVHGSRNKPTSLWNPTYGSWFTEKPTKKNNPIAKKEPHDRGNLGLEGSCTVPPNVATGRLPGASLLLEPSSLTANMKEVPLFRLRHFPCGNVNYGYQQQGLPLEAATAPGAGHYEDTILKSKNSMNQPGP

> <PDB ID(s) of Target Chain>
2XB7,2XBA,3AOX,5FTO,5FTQ,6E0R,6EBW,6EDL,6MX8,7JY4,7JYR,7JYS,7JYT,7LS0,7MZW,7MZY,7N00,7NX3,7NX4,8ARJ

> <UniProt (SwissProt) Recommended Name of Target Chain>
ALK tyrosine kinase receptor

> <UniProt (SwissProt) Entry Name of Target Chain>
ALK_HUMAN

> <UniProt (SwissProt) Primary ID of Target Chain>
Q9UM73

> <UniProt (SwissProt) Secondary ID(s) of Target Chain>
A6P4T4 A6P4V4 Q4ZFX9 Q53QQ6 Q53RZ4 Q59FI3 Q9Y4K6

> <UniProt (SwissProt) Alternative ID(s) of Target Chain>


> <UniProt (TrEMBL) Submitted Name of Target Chain>


> <UniProt (TrEMBL) Entry Name of Target Chain>


> <UniProt (TrEMBL) Primary ID of Target Chain>


> <UniProt (TrEMBL) Secondary ID(s) of Target Chain>


> <UniProt (TrEMBL) Alternative ID(s) of Target Chain>


$$$$
 
  Mrv0541 11221423062D          

 30 33  0  0  0  0            999 V2000
   -0.9640    1.6774    0.0000 C   0  0  0  0  0  0  0  0  0  0  0  0
   -0.9653    0.8499    0.0000 C   0  0  0  0  0  0  0  0  0  0  0  0
   -0.2523    0.4370    0.0000 C   0  0  0  0  0  0  0  0  0  0  0  0
    0.4669    0.8504    0.0000 C   0  0  0  0  0  0  0  0  0  0  0  0
    0.4637    1.6815    0.0000 C   0  0  0  0  0  0  0  0  0  0  0  0
   -0.2543    2.0903    0.0000 N   0  0  0  0  0  0  0  0  0  0  0  0
   -1.6814    0.4425    0.0000 C   0  0  0  0  0  0  0  0  0  0  0  0
   -2.4724    0.6769    0.0000 C   0  0  0  0  0  0  0  0  0  0  0  0
   -2.9398   -0.0030    0.0000 N   0  0  0  0  0  0  0  0  0  0  0  0
   -2.4376   -0.6576    0.0000 N   0  0  0  0  0  0  0  0  0  0  0  0
   -1.6599   -0.3821    0.0000 C   0  0  0  0  0  0  0  0  0  0  0  0
   -3.7651   -0.0266    0.0000 C   0  0  0  0  0  0  0  0  0  0  0  0
   -4.1948    0.6787    0.0000 C   0  0  0  0  0  0  0  0  0  0  0  0
   -5.0160    0.6593    0.0000 C   0  0  0  0  0  0  0  0  0  0  0  0
   -5.4137   -0.0639    0.0000 N   0  0  0  0  0  0  0  0  0  0  0  0
   -4.9839   -0.7692    0.0000 C   0  0  0  0  0  0  0  0  0  0  0  0
   -4.1564   -0.7513    0.0000 C   0  0  0  0  0  0  0  0  0  0  0  0
    1.1762    2.0975    0.0000 N   0  0  0  0  0  0  0  0  0  0  0  0
    1.1818    0.4386    0.0000 O   0  0  0  0  0  0  0  0  0  0  0  0
    1.1825   -0.3864    0.0000 C   0  0  1  0  0  0  0  0  0  0  0  0
    1.8973   -0.7982    0.0000 C   0  0  0  0  0  0  0  0  0  0  0  0
    0.4685   -0.7996    0.0000 C   0  0  0  0  0  0  0  0  0  0  0  0
    1.8953   -1.6235    0.0000 C   0  0  0  0  0  0  0  0  0  0  0  0
    2.6093   -2.0354    0.0000 C   0  0  0  0  0  0  0  0  0  0  0  0
    3.3244   -1.6221    0.0000 C   0  0  0  0  0  0  0  0  0  0  0  0
    3.3210   -0.7930    0.0000 C   0  0  0  0  0  0  0  0  0  0  0  0
    2.6065   -0.3849    0.0000 C   0  0  0  0  0  0  0  0  0  0  0  0
    2.6028    0.4401    0.0000 Cl  0  0  0  0  0  0  0  0  0  0  0  0
    4.0337   -0.3773    0.0000 F   0  0  0  0  0  0  0  0  0  0  0  0
    1.1806   -2.0354    0.0000 Cl  0  0  0  0  0  0  0  0  0  0  0  0
 12 17  1  0  0  0  0
 13 14  1  0  0  0  0
 14 15  1  0  0  0  0
 15 16  1  0  0  0  0
 16 17  1  0  0  0  0
  9 12  1  0  0  0  0
  4  5  2  0  0  0  0
  5 18  1  0  0  0  0
  2  3  2  0  0  0  0
  4 19  1  0  0  0  0
  8  9  1  0  0  0  0
 20 19  1  0  0  0  0
  9 10  1  0  0  0  0
 20 21  1  0  0  0  0
 10 11  2  0  0  0  0
 20 22  1  1  0  0  0
 11  7  1  0  0  0  0
 21 23  2  0  0  0  0
  2  7  1  0  0  0  0
 23 24  1  0  0  0  0
 12 13  1  0  0  0  0
 24 25  2  0  0  0  0
  5  6  1  0  0  0  0
 25 26  1  0  0  0  0
  6  1  2  0  0  0  0
 26 27  2  0  0  0  0
 27 21  1  0  0  0  0
  7  8  2  0  0  0  0
 27 28  1  0  0  0  0
  1  2  1  0  0  0  0
 26 29  1  0  0  0  0
  3  4  1  0  0  0  0
 23 30  1  0  0  0  0
M  END
> <From>
www.bindingDB.org

> <BindingDB Reactant_set_id>
50103621

> <Ligand InChI>
InChI=1S/C21H22Cl2FN5O/c1-12(19-16(22)2-3-17(24)20(19)23)30-18-8-13(9-27-21(18)25)14-10-28-29(11-14)15-4-6-26-7-5-15/h2-3,8-12,15,26H,4-7H2,1H3,(H2,25,27)/t12-/m1/s1

> <Ligand InChI Key>
KTEIFNKAUNYNJU-GFCCVEGCSA-N

> <BindingDB MonomerID>
50306682

> <BindingDB Ligand Name>
(R)-3-(1-(2,6-dichloro-3-fluorophenyl)ethoxy)-5-(1-(piperidin-4-yl)-1H-pyrazol-4-yl)pyridin-2-amine::3-(2,6-dichloro-3-fluorobenzyloxy)-5-(1-(piperidin-4-yl)-1H-pyrazol-4-yl)pyridin-2-amine::3-[(1R)-1-(2,6-dichloro-3-fluorophenyl)ethoxy]-5-(1-piperidin-4-yl-1H-pyrazol-4-yl)pyridin-2-amine::CHEMBL601719::CRIZOTINIB::PF-2341066::US10370379, Crizotinib::US10543199, Compound Crizotinib::US10780082, Compound Crizotinib::US11059827, Compound Crizotinib::US11517561, Compound Crizotinib::US9126941, PF-2341066::US9199944, Crizotinib::US9226923, Crizotinib

> <Target Name>
ALK tyrosine kinase receptor

> <Target Source Organism According to Curator or DataSource>
Homo sapiens

> <Ki (nM)>


> <IC50 (nM)>
 626

> <Kd (nM)>


> <EC50 (nM)>


> <kon (M-1-s-1)>


> <koff (s-1)>


> <pH>


> <Temp C>


> <Curation/DataSource>
ChEMBL

> <Article DOI>
10.1021/jm500261q

> <BindingDB Entry DOI>
10.7270/Q2K35W68

> <PMID>
24819116

> <PubChem AID>


> <Patent Number>


> <Authors>
Johnson, TW; Richardson, PF; Bailey, S; Brooun, A; Burke, BJ; Collins, MR; Cui, JJ; Deal, JG; Deng, YL; Dinh, D; Engstrom, LD; He, M; Hoffman, J; Hoffman, RL; Huang, Q; Kania, RS; Kath, JC; Lam, H; Lam, JL; Le, PT; Lingardo, L; Liu, W; McTigue, M; Palmer, CL; Sach, NW; Smeal, T; Smith, GL; Stewart, AE; Timofeevski, S; Zhu, H; Zhu, J; Zou, HY; Edwards, MP

> <Date of publication>
6/12/2014

> <Date in BindingDB>
2/11/2015

> <Institution>
Pfizer Inc

> <Link to Ligand in BindingDB>
http://www.bindingdb.org/bind/chemsearch/marvin/MolStructure.jsp?monomerid=50306682

> <Link to Ligand-Target Pair in BindingDB>
http://www.bindingdb.org/jsp/dbsearch/PrimarySearch_ki.jsp?energyterm=kJ/mole&tag=pol&polymerid=5809&target=ALK+tyrosine+kinase+receptor&column=ki&startPg=0&Increment=50&submit=Search

> <Link to Ligand-Target Pair in BindingDB>
http://www.bindingdb.org/jsp/dbsearch/PrimarySearch_ki.jsp?energyterm=kJ/mole&tag=r21&monomerid=50306682&enzyme=ALK+tyrosine+kinase+receptor&column=ki&startPg=0&Increment=50&submit=Search

> <Ligand HET ID in PDB>
VGH

> <PDB ID(s) for Ligand-Target Complex>
2YFX,5AAA,5AAC,5AAB,4ANS,4ANQ,2XP2,2WGJ,3ZBF,4C9W,6IMZ

> <PubChem CID of Ligand>
11626560

> <PubChem SID of Ligand>
104161043

> <ChEBI ID of Ligand>
64310

> <ChEMBL ID of Ligand>
CHEMBL601719

> <DrugBank ID of Ligand>
DB08700

> <IUPHAR_GRAC ID of Ligand>
4903

> <KEGG ID of Ligand>


> <ZINC ID of Ligand>
ZINC35902489

> <Number of Protein Chains in Target (bigger than 1 implies a multichain complex)>
1

> <BindingDB Target Chain Sequence>
MGAIGLLWLLPLLLSTAAVGSGMGTGQRAGSPAAGPPLQPREPLSYSRLQRKSLAVDFVVPSLFRVYARDLLLPPSSSELKAGRPEARGSLALDCAPLLRLLGPAPGVSWTAGSPAPAEARTLSRVLKGGSVRKLRRAKQLVLELGEEAILEGCVGPPGEAAVGLLQFNLSELFSWWIRQGEGRLRIRLMPEKKASEVGREGRLSAAIRASQPRLLFQIFGTGHSSLESPTNMPSPSPDYFTWNLTWIMKDSFPFLSHRSRYGLECSFDFPCELEYSPPLHDLRNQSWSWRRIPSEEASQMDLLDGPGAERSKEMPRGSFLLLNTSADSKHTILSPWMRSSSEHCTLAVSVHRHLQPSGRYIAQLLPHNEAAREILLMPTPGKHGWTVLQGRIGRPDNPFRVALEYISSGNRSLSAVDFFALKNCSEGTSPGSKMALQSSFTCWNGTVLQLGQACDFHQDCAQGEDESQMCRKLPVGFYCNFEDGFCGWTQGTLSPHTPQWQVRTLKDARFQDHQDHALLLSTTDVPASESATVTSATFPAPIKSSPCELRMSWLIRGVLRGNVSLVLVENKTGKEQGRMVWHVAAYEGLSLWQWMVLPLLDVSDRFWLQMVAWWGQGSRAIVAFDNISISLDCYLTISGEDKILQNTAPKSRNLFERNPNKELKPGENSPRQTPIFDPTVHWLFTTCGASGPHGPTQAQCNNAYQNSNLSVEVGSEGPLKGIQIWKVPATDTYSISGYGAAGGKGGKNTMMRSHGVSVLGIFNLEKDDMLYILVGQQGEDACPSTNQLIQKVCIGENNVIEEEIRVNRSVHEWAGGGGGGGGATYVFKMKDGVPVPLIIAAGGGGRAYGAKTDTFHPERLENNSSVLGLNGNSGAAGGGGGWNDNTSLLWAGKSLQEGATGGHSCPQAMKKWGWETRGGFGGGGGGCSSGGGGGGYIGGNAASNNDPEMDGEDGVSFISPLGILYTPALKVMEGHGEVNIKHYLNCSHCEVDECHMDPESHKVICFCDHGTVLAEDGVSCIVSPTPEPHLPLSLILSVVTSALVAALVLAFSGIMIVYRRKHQELQAMQMELQSPEYKLSKLRTSTIMTDYNPNYCFAGKTSSISDLKEVPRKNITLIRGLGHGAFGEVYEGQVSGMPNDPSPLQVAVKTLPEVCSEQDELDFLMEALIISKFNHQNIVRCIGVSLQSLPRFILLELMAGGDLKSFLRETRPRPSQPSSLAMLDLLHVARDIACGCQYLEENHFIHRDIAARNCLLTCPGPGRVAKIGDFGMARDIYRASYYRKGGCAMLPVKWMPPEAFMEGIFTSKTDTWSFGVLLWEIFSLGYMPYPSKSNQEVLEFVTSGGRMDPPKNCPGPVYRIMTQCWQHQPEDRPNFAIILERIEYCTQDPDVINTALPIEYGPLVEEEEKVPVRPKDPEGVPPLLVSQQAKREEERSPAAPPPLPTTSSGKAAKKPTAAEISVRVPRGPAVEGGHVNMAFSQSNPPSELHKVHGSRNKPTSLWNPTYGSWFTEKPTKKNNPIAKKEPHDRGNLGLEGSCTVPPNVATGRLPGASLLLEPSSLTANMKEVPLFRLRHFPCGNVNYGYQQQGLPLEAATAPGAGHYEDTILKSKNSMNQPGP

> <PDB ID(s) of Target Chain>
2XB7,2XBA,3AOX,5FTO,5FTQ,6E0R,6EBW,6EDL,6MX8,7JY4,7JYR,7JYS,7JYT,7LS0,7MZW,7MZY,7N00,7NX3,7NX4,8ARJ

> <UniProt (SwissProt) Recommended Name of Target Chain>
ALK tyrosine kinase receptor

> <UniProt (SwissProt) Entry Name of Target Chain>
ALK_HUMAN

> <UniProt (SwissProt) Primary ID of Target Chain>
Q9UM73

> <UniProt (SwissProt) Secondary ID(s) of Target Chain>
A6P4T4 A6P4V4 Q4ZFX9 Q53QQ6 Q53RZ4 Q59FI3 Q9Y4K6

> <UniProt (SwissProt) Alternative ID(s) of Target Chain>


> <UniProt (TrEMBL) Submitted Name of Target Chain>


> <UniProt (TrEMBL) Entry Name of Target Chain>


> <UniProt (TrEMBL) Primary ID of Target Chain>


> <UniProt (TrEMBL) Secondary ID(s) of Target Chain>


> <UniProt (TrEMBL) Alternative ID(s) of Target Chain>


$$$$

  SciTegic09261414532D

 26 29  0  0  0  0            999 V2000
    6.2373  -10.4220    0.0000 C   0  0
    4.7875  -11.2145    0.0000 C   0  0
    4.8069  -10.3886    0.0000 C   0  0
    5.5317   -9.9924    0.0000 C   0  0
    6.2180  -11.2479    0.0000 C   0  0
    5.4932  -11.6441    0.0000 N   0  0
    4.0627  -11.6107    0.0000 N   0  0
    4.1012   -9.9590    0.0000 O   0  0
    6.9780   -9.2013    0.0000 C   0  0
    6.9597  -10.0258    0.0000 C   0  0
    7.7381  -10.2980    0.0000 N   0  0
    8.2376   -9.6417    0.0000 N   0  0
    7.7678   -8.9641    0.0000 C   0  0
    7.9755  -11.0880    0.0000 C   0  0
    3.3774  -10.3546    0.0000 C   0  0
    2.6727   -9.9255    0.0000 C   0  0
    2.6968   -9.1007    0.0000 C   0  0
    1.9930   -8.6716    0.0000 C   0  0
    1.2681   -9.0673    0.0000 C   0  0
    1.2514   -9.8965    0.0000 C   0  0
    1.9559  -10.3217    0.0000 C   0  0
    3.4219   -8.7071    0.0000 O   0  0
    4.1252   -9.1384    0.0000 C   0  0
    4.8503   -8.7450    0.0000 C   0  0
    5.5537   -9.1762    0.0000 C   0  0
    0.5289  -10.2946    0.0000 F   0  0
  2  3  1  0
  3  4  2  0
  4  1  1  0
  1  5  2  0
  5  6  1  0
  2  6  2  0
  2  7  1  0
  3  8  1  0
  1 10  1  0
  9 10  2  0
 10 11  1  0
 11 12  1  0
 12 13  2  0
 13  9  1  0
 11 14  1  0
  8 15  1  0
 15 16  1  0
 16 17  2  0
 17 18  1  0
 18 19  2  0
 19 20  1  0
 20 21  2  0
 21 16  1  0
 17 22  1  0
 22 23  1  0
 23 24  1  0
 24 25  1  0
 25  9  1  0
 20 26  1  0
M  END
> <From>
www.bindingDB.org

> <BindingDB Reactant_set_id>
50103712

> <Ligand InChI>
InChI=1S/C19H19FN4O2/c1-24-18-12(10-23-24)3-2-6-25-16-5-4-15(20)7-14(16)11-26-17-8-13(18)9-22-19(17)21/h4-5,7-10H,2-3,6,11H2,1H3,(H2,21,22)

> <Ligand InChI Key>
LMZGMLCWYMKZIR-UHFFFAOYSA-N

> <BindingDB MonomerID>
50018826

> <BindingDB Ligand Name>
CHEMBL3286816

> <Target Name>
ALK tyrosine kinase receptor

> <Target Source Organism According to Curator or DataSource>
Homo sapiens

> <Ki (nM)>


> <IC50 (nM)>
 654

> <Kd (nM)>


> <EC50 (nM)>


> <kon (M-1-s-1)>


> <koff (s-1)>


> <pH>


> <Temp C>


> <Curation/DataSource>
ChEMBL

> <Article DOI>
10.1021/jm500261q

> <BindingDB Entry DOI>
10.7270/Q2K35W68

> <PMID>
24819116

> <PubChem AID>


> <Patent Number>


> <Authors>
Johnson, TW; Richardson, PF; Bailey, S; Brooun, A; Burke, BJ; Collins, MR; Cui, JJ; Deal, JG; Deng, YL; Dinh, D; Engstrom, LD; He, M; Hoffman, J; Hoffman, RL; Huang, Q; Kania, RS; Kath, JC; Lam, H; Lam, JL; Le, PT; Lingardo, L; Liu, W; McTigue, M; Palmer, CL; Sach, NW; Smeal, T; Smith, GL; Stewart, AE; Timofeevski, S; Zhu, H; Zhu, J; Zou, HY; Edwards, MP

> <Date of publication>
6/12/2014

> <Date in BindingDB>
2/11/2015

> <Institution>
Pfizer Inc

> <Link to Ligand in BindingDB>
http://www.bindingdb.org/bind/chemsearch/marvin/MolStructure.jsp?monomerid=50018826

> <Link to Ligand-Target Pair in BindingDB>
http://www.bindingdb.org/jsp/dbsearch/PrimarySearch_ki.jsp?energyterm=kJ/mole&tag=pol&polymerid=5809&target=ALK+tyrosine+kinase+receptor&column=ki&startPg=0&Increment=50&submit=Search

> <Link to Ligand-Target Pair in BindingDB>
http://www.bindingdb.org/jsp/dbsearch/PrimarySearch_ki.jsp?energyterm=kJ/mole&tag=r21&monomerid=50018826&enzyme=ALK+tyrosine+kinase+receptor&column=ki&startPg=0&Increment=50&submit=Search

> <Ligand HET ID in PDB>


> <PDB ID(s) for Ligand-Target Complex>


> <PubChem CID of Ligand>
71732092

> <PubChem SID of Ligand>
103929879

> <ChEBI ID of Ligand>


> <ChEMBL ID of Ligand>
CHEMBL3286816

> <DrugBank ID of Ligand>


> <IUPHAR_GRAC ID of Ligand>


> <KEGG ID of Ligand>


> <ZINC ID of Ligand>
ZINC33891511

> <Number of Protein Chains in Target (bigger than 1 implies a multichain complex)>
1

> <BindingDB Target Chain Sequence>
MGAIGLLWLLPLLLSTAAVGSGMGTGQRAGSPAAGPPLQPREPLSYSRLQRKSLAVDFVVPSLFRVYARDLLLPPSSSELKAGRPEARGSLALDCAPLLRLLGPAPGVSWTAGSPAPAEARTLSRVLKGGSVRKLRRAKQLVLELGEEAILEGCVGPPGEAAVGLLQFNLSELFSWWIRQGEGRLRIRLMPEKKASEVGREGRLSAAIRASQPRLLFQIFGTGHSSLESPTNMPSPSPDYFTWNLTWIMKDSFPFLSHRSRYGLECSFDFPCELEYSPPLHDLRNQSWSWRRIPSEEASQMDLLDGPGAERSKEMPRGSFLLLNTSADSKHTILSPWMRSSSEHCTLAVSVHRHLQPSGRYIAQLLPHNEAAREILLMPTPGKHGWTVLQGRIGRPDNPFRVALEYISSGNRSLSAVDFFALKNCSEGTSPGSKMALQSSFTCWNGTVLQLGQACDFHQDCAQGEDESQMCRKLPVGFYCNFEDGFCGWTQGTLSPHTPQWQVRTLKDARFQDHQDHALLLSTTDVPASESATVTSATFPAPIKSSPCELRMSWLIRGVLRGNVSLVLVENKTGKEQGRMVWHVAAYEGLSLWQWMVLPLLDVSDRFWLQMVAWWGQGSRAIVAFDNISISLDCYLTISGEDKILQNTAPKSRNLFERNPNKELKPGENSPRQTPIFDPTVHWLFTTCGASGPHGPTQAQCNNAYQNSNLSVEVGSEGPLKGIQIWKVPATDTYSISGYGAAGGKGGKNTMMRSHGVSVLGIFNLEKDDMLYILVGQQGEDACPSTNQLIQKVCIGENNVIEEEIRVNRSVHEWAGGGGGGGGATYVFKMKDGVPVPLIIAAGGGGRAYGAKTDTFHPERLENNSSVLGLNGNSGAAGGGGGWNDNTSLLWAGKSLQEGATGGHSCPQAMKKWGWETRGGFGGGGGGCSSGGGGGGYIGGNAASNNDPEMDGEDGVSFISPLGILYTPALKVMEGHGEVNIKHYLNCSHCEVDECHMDPESHKVICFCDHGTVLAEDGVSCIVSPTPEPHLPLSLILSVVTSALVAALVLAFSGIMIVYRRKHQELQAMQMELQSPEYKLSKLRTSTIMTDYNPNYCFAGKTSSISDLKEVPRKNITLIRGLGHGAFGEVYEGQVSGMPNDPSPLQVAVKTLPEVCSEQDELDFLMEALIISKFNHQNIVRCIGVSLQSLPRFILLELMAGGDLKSFLRETRPRPSQPSSLAMLDLLHVARDIACGCQYLEENHFIHRDIAARNCLLTCPGPGRVAKIGDFGMARDIYRASYYRKGGCAMLPVKWMPPEAFMEGIFTSKTDTWSFGVLLWEIFSLGYMPYPSKSNQEVLEFVTSGGRMDPPKNCPGPVYRIMTQCWQHQPEDRPNFAIILERIEYCTQDPDVINTALPIEYGPLVEEEEKVPVRPKDPEGVPPLLVSQQAKREEERSPAAPPPLPTTSSGKAAKKPTAAEISVRVPRGPAVEGGHVNMAFSQSNPPSELHKVHGSRNKPTSLWNPTYGSWFTEKPTKKNNPIAKKEPHDRGNLGLEGSCTVPPNVATGRLPGASLLLEPSSLTANMKEVPLFRLRHFPCGNVNYGYQQQGLPLEAATAPGAGHYEDTILKSKNSMNQPGP

> <PDB ID(s) of Target Chain>
2XB7,2XBA,3AOX,5FTO,5FTQ,6E0R,6EBW,6EDL,6MX8,7JY4,7JYR,7JYS,7JYT,7LS0,7MZW,7MZY,7N00,7NX3,7NX4,8ARJ

> <UniProt (SwissProt) Recommended Name of Target Chain>
ALK tyrosine kinase receptor

> <UniProt (SwissProt) Entry Name of Target Chain>
ALK_HUMAN

> <UniProt (SwissProt) Primary ID of Target Chain>
Q9UM73

> <UniProt (SwissProt) Secondary ID(s) of Target Chain>
A6P4T4 A6P4V4 Q4ZFX9 Q53QQ6 Q53RZ4 Q59FI3 Q9Y4K6

> <UniProt (SwissProt) Alternative ID(s) of Target Chain>


> <UniProt (TrEMBL) Submitted Name of Target Chain>


> <UniProt (TrEMBL) Entry Name of Target Chain>


> <UniProt (TrEMBL) Primary ID of Target Chain>


> <UniProt (TrEMBL) Secondary ID(s) of Target Chain>


> <UniProt (TrEMBL) Alternative ID(s) of Target Chain>


$$$$
 
  Mrv0541 11221423062D          

 30 33  0  0  0  0            999 V2000
   -0.9640    1.6774    0.0000 C   0  0  0  0  0  0  0  0  0  0  0  0
   -0.9653    0.8499    0.0000 C   0  0  0  0  0  0  0  0  0  0  0  0
   -0.2523    0.4370    0.0000 C   0  0  0  0  0  0  0  0  0  0  0  0
    0.4669    0.8504    0.0000 C   0  0  0  0  0  0  0  0  0  0  0  0
    0.4637    1.6815    0.0000 C   0  0  0  0  0  0  0  0  0  0  0  0
   -0.2543    2.0903    0.0000 N   0  0  0  0  0  0  0  0  0  0  0  0
   -1.6814    0.4425    0.0000 C   0  0  0  0  0  0  0  0  0  0  0  0
   -2.4724    0.6769    0.0000 C   0  0  0  0  0  0  0  0  0  0  0  0
   -2.9398   -0.0030    0.0000 N   0  0  0  0  0  0  0  0  0  0  0  0
   -2.4376   -0.6576    0.0000 N   0  0  0  0  0  0  0  0  0  0  0  0
   -1.6599   -0.3821    0.0000 C   0  0  0  0  0  0  0  0  0  0  0  0
   -3.7651   -0.0266    0.0000 C   0  0  0  0  0  0  0  0  0  0  0  0
   -4.1948    0.6787    0.0000 C   0  0  0  0  0  0  0  0  0  0  0  0
   -5.0160    0.6593    0.0000 C   0  0  0  0  0  0  0  0  0  0  0  0
   -5.4137   -0.0639    0.0000 N   0  0  0  0  0  0  0  0  0  0  0  0
   -4.9839   -0.7692    0.0000 C   0  0  0  0  0  0  0  0  0  0  0  0
   -4.1564   -0.7513    0.0000 C   0  0  0  0  0  0  0  0  0  0  0  0
    1.1762    2.0975    0.0000 N   0  0  0  0  0  0  0  0  0  0  0  0
    1.1818    0.4386    0.0000 O   0  0  0  0  0  0  0  0  0  0  0  0
    1.1825   -0.3864    0.0000 C   0  0  1  0  0  0  0  0  0  0  0  0
    1.8973   -0.7982    0.0000 C   0  0  0  0  0  0  0  0  0  0  0  0
    0.4685   -0.7996    0.0000 C   0  0  0  0  0  0  0  0  0  0  0  0
    1.8953   -1.6235    0.0000 C   0  0  0  0  0  0  0  0  0  0  0  0
    2.6093   -2.0354    0.0000 C   0  0  0  0  0  0  0  0  0  0  0  0
    3.3244   -1.6221    0.0000 C   0  0  0  0  0  0  0  0  0  0  0  0
    3.3210   -0.7930    0.0000 C   0  0  0  0  0  0  0  0  0  0  0  0
    2.6065   -0.3849    0.0000 C   0  0  0  0  0  0  0  0  0  0  0  0
    2.6028    0.4401    0.0000 Cl  0  0  0  0  0  0  0  0  0  0  0  0
    4.0337   -0.3773    0.0000 F   0  0  0  0  0  0  0  0  0  0  0  0
    1.1806   -2.0354    0.0000 Cl  0  0  0  0  0  0  0  0  0  0  0  0
 12 17  1  0  0  0  0
 13 14  1  0  0  0  0
 14 15  1  0  0  0  0
 15 16  1  0  0  0  0
 16 17  1  0  0  0  0
  9 12  1  0  0  0  0
  4  5  2  0  0  0  0
  5 18  1  0  0  0  0
  2  3  2  0  0  0  0
  4 19  1  0  0  0  0
  8  9  1  0  0  0  0
 20 19  1  0  0  0  0
  9 10  1  0  0  0  0
 20 21  1  0  0  0  0
 10 11  2  0  0  0  0
 20 22  1  1  0  0  0
 11  7  1  0  0  0  0
 21 23  2  0  0  0  0
  2  7  1  0  0  0  0
 23 24  1  0  0  0  0
 12 13  1  0  0  0  0
 24 25  2  0  0  0  0
  5  6  1  0  0  0  0
 25 26  1  0  0  0  0
  6  1  2  0  0  0  0
 26 27  2  0  0  0  0
 27 21  1  0  0  0  0
  7  8  2  0  0  0  0
 27 28  1  0  0  0  0
  1  2  1  0  0  0  0
 26 29  1  0  0  0  0
  3  4  1  0  0  0  0
 23 30  1  0  0  0  0
M  END
> <From>
www.bindingDB.org

> <BindingDB Reactant_set_id>
50103701

> <Ligand InChI>
InChI=1S/C21H22Cl2FN5O/c1-12(19-16(22)2-3-17(24)20(19)23)30-18-8-13(9-27-21(18)25)14-10-28-29(11-14)15-4-6-26-7-5-15/h2-3,8-12,15,26H,4-7H2,1H3,(H2,25,27)/t12-/m1/s1

> <Ligand InChI Key>
KTEIFNKAUNYNJU-GFCCVEGCSA-N

> <BindingDB MonomerID>
50306682

> <BindingDB Ligand Name>
(R)-3-(1-(2,6-dichloro-3-fluorophenyl)ethoxy)-5-(1-(piperidin-4-yl)-1H-pyrazol-4-yl)pyridin-2-amine::3-(2,6-dichloro-3-fluorobenzyloxy)-5-(1-(piperidin-4-yl)-1H-pyrazol-4-yl)pyridin-2-amine::3-[(1R)-1-(2,6-dichloro-3-fluorophenyl)ethoxy]-5-(1-piperidin-4-yl-1H-pyrazol-4-yl)pyridin-2-amine::CHEMBL601719::CRIZOTINIB::PF-2341066::US10370379, Crizotinib::US10543199, Compound Crizotinib::US10780082, Compound Crizotinib::US11059827, Compound Crizotinib::US11517561, Compound Crizotinib::US9126941, PF-2341066::US9199944, Crizotinib::US9226923, Crizotinib

> <Target Name>
ALK tyrosine kinase receptor

> <Target Source Organism According to Curator or DataSource>
Homo sapiens

> <Ki (nM)>


> <IC50 (nM)>
 843

> <Kd (nM)>


> <EC50 (nM)>


> <kon (M-1-s-1)>


> <koff (s-1)>


> <pH>


> <Temp C>


> <Curation/DataSource>
ChEMBL

> <Article DOI>
10.1021/jm500261q

> <BindingDB Entry DOI>
10.7270/Q2K35W68

> <PMID>
24819116

> <PubChem AID>


> <Patent Number>


> <Authors>
Johnson, TW; Richardson, PF; Bailey, S; Brooun, A; Burke, BJ; Collins, MR; Cui, JJ; Deal, JG; Deng, YL; Dinh, D; Engstrom, LD; He, M; Hoffman, J; Hoffman, RL; Huang, Q; Kania, RS; Kath, JC; Lam, H; Lam, JL; Le, PT; Lingardo, L; Liu, W; McTigue, M; Palmer, CL; Sach, NW; Smeal, T; Smith, GL; Stewart, AE; Timofeevski, S; Zhu, H; Zhu, J; Zou, HY; Edwards, MP

> <Date of publication>
6/12/2014

> <Date in BindingDB>
2/11/2015

> <Institution>
Pfizer Inc

> <Link to Ligand in BindingDB>
http://www.bindingdb.org/bind/chemsearch/marvin/MolStructure.jsp?monomerid=50306682

> <Link to Ligand-Target Pair in BindingDB>
http://www.bindingdb.org/jsp/dbsearch/PrimarySearch_ki.jsp?energyterm=kJ/mole&tag=pol&polymerid=5809&target=ALK+tyrosine+kinase+receptor&column=ki&startPg=0&Increment=50&submit=Search

> <Link to Ligand-Target Pair in BindingDB>
http://www.bindingdb.org/jsp/dbsearch/PrimarySearch_ki.jsp?energyterm=kJ/mole&tag=r21&monomerid=50306682&enzyme=ALK+tyrosine+kinase+receptor&column=ki&startPg=0&Increment=50&submit=Search

> <Ligand HET ID in PDB>
VGH

> <PDB ID(s) for Ligand-Target Complex>
2YFX,5AAA,5AAC,5AAB,4ANS,4ANQ,2XP2,2WGJ,3ZBF,4C9W,6IMZ

> <PubChem CID of Ligand>
11626560

> <PubChem SID of Ligand>
104161043

> <ChEBI ID of Ligand>
64310

> <ChEMBL ID of Ligand>
CHEMBL601719

> <DrugBank ID of Ligand>
DB08700

> <IUPHAR_GRAC ID of Ligand>
4903

> <KEGG ID of Ligand>


> <ZINC ID of Ligand>
ZINC35902489

> <Number of Protein Chains in Target (bigger than 1 implies a multichain complex)>
1

> <BindingDB Target Chain Sequence>
MGAIGLLWLLPLLLSTAAVGSGMGTGQRAGSPAAGPPLQPREPLSYSRLQRKSLAVDFVVPSLFRVYARDLLLPPSSSELKAGRPEARGSLALDCAPLLRLLGPAPGVSWTAGSPAPAEARTLSRVLKGGSVRKLRRAKQLVLELGEEAILEGCVGPPGEAAVGLLQFNLSELFSWWIRQGEGRLRIRLMPEKKASEVGREGRLSAAIRASQPRLLFQIFGTGHSSLESPTNMPSPSPDYFTWNLTWIMKDSFPFLSHRSRYGLECSFDFPCELEYSPPLHDLRNQSWSWRRIPSEEASQMDLLDGPGAERSKEMPRGSFLLLNTSADSKHTILSPWMRSSSEHCTLAVSVHRHLQPSGRYIAQLLPHNEAAREILLMPTPGKHGWTVLQGRIGRPDNPFRVALEYISSGNRSLSAVDFFALKNCSEGTSPGSKMALQSSFTCWNGTVLQLGQACDFHQDCAQGEDESQMCRKLPVGFYCNFEDGFCGWTQGTLSPHTPQWQVRTLKDARFQDHQDHALLLSTTDVPASESATVTSATFPAPIKSSPCELRMSWLIRGVLRGNVSLVLVENKTGKEQGRMVWHVAAYEGLSLWQWMVLPLLDVSDRFWLQMVAWWGQGSRAIVAFDNISISLDCYLTISGEDKILQNTAPKSRNLFERNPNKELKPGENSPRQTPIFDPTVHWLFTTCGASGPHGPTQAQCNNAYQNSNLSVEVGSEGPLKGIQIWKVPATDTYSISGYGAAGGKGGKNTMMRSHGVSVLGIFNLEKDDMLYILVGQQGEDACPSTNQLIQKVCIGENNVIEEEIRVNRSVHEWAGGGGGGGGATYVFKMKDGVPVPLIIAAGGGGRAYGAKTDTFHPERLENNSSVLGLNGNSGAAGGGGGWNDNTSLLWAGKSLQEGATGGHSCPQAMKKWGWETRGGFGGGGGGCSSGGGGGGYIGGNAASNNDPEMDGEDGVSFISPLGILYTPALKVMEGHGEVNIKHYLNCSHCEVDECHMDPESHKVICFCDHGTVLAEDGVSCIVSPTPEPHLPLSLILSVVTSALVAALVLAFSGIMIVYRRKHQELQAMQMELQSPEYKLSKLRTSTIMTDYNPNYCFAGKTSSISDLKEVPRKNITLIRGLGHGAFGEVYEGQVSGMPNDPSPLQVAVKTLPEVCSEQDELDFLMEALIISKFNHQNIVRCIGVSLQSLPRFILLELMAGGDLKSFLRETRPRPSQPSSLAMLDLLHVARDIACGCQYLEENHFIHRDIAARNCLLTCPGPGRVAKIGDFGMARDIYRASYYRKGGCAMLPVKWMPPEAFMEGIFTSKTDTWSFGVLLWEIFSLGYMPYPSKSNQEVLEFVTSGGRMDPPKNCPGPVYRIMTQCWQHQPEDRPNFAIILERIEYCTQDPDVINTALPIEYGPLVEEEEKVPVRPKDPEGVPPLLVSQQAKREEERSPAAPPPLPTTSSGKAAKKPTAAEISVRVPRGPAVEGGHVNMAFSQSNPPSELHKVHGSRNKPTSLWNPTYGSWFTEKPTKKNNPIAKKEPHDRGNLGLEGSCTVPPNVATGRLPGASLLLEPSSLTANMKEVPLFRLRHFPCGNVNYGYQQQGLPLEAATAPGAGHYEDTILKSKNSMNQPGP

> <PDB ID(s) of Target Chain>
2XB7,2XBA,3AOX,5FTO,5FTQ,6E0R,6EBW,6EDL,6MX8,7JY4,7JYR,7JYS,7JYT,7LS0,7MZW,7MZY,7N00,7NX3,7NX4,8ARJ

> <UniProt (SwissProt) Recommended Name of Target Chain>
ALK tyrosine kinase receptor

> <UniProt (SwissProt) Entry Name of Target Chain>
ALK_HUMAN

> <UniProt (SwissProt) Primary ID of Target Chain>
Q9UM73

> <UniProt (SwissProt) Secondary ID(s) of Target Chain>
A6P4T4 A6P4V4 Q4ZFX9 Q53QQ6 Q53RZ4 Q59FI3 Q9Y4K6

> <UniProt (SwissProt) Alternative ID(s) of Target Chain>


> <UniProt (TrEMBL) Submitted Name of Target Chain>


> <UniProt (TrEMBL) Entry Name of Target Chain>


> <UniProt (TrEMBL) Primary ID of Target Chain>


> <UniProt (TrEMBL) Secondary ID(s) of Target Chain>


> <UniProt (TrEMBL) Alternative ID(s) of Target Chain>


$$$$
 
  Mrv0541 11221423062D          

 30 33  0  0  0  0            999 V2000
   -0.9640    1.6774    0.0000 C   0  0  0  0  0  0  0  0  0  0  0  0
   -0.9653    0.8499    0.0000 C   0  0  0  0  0  0  0  0  0  0  0  0
   -0.2523    0.4370    0.0000 C   0  0  0  0  0  0  0  0  0  0  0  0
    0.4669    0.8504    0.0000 C   0  0  0  0  0  0  0  0  0  0  0  0
    0.4637    1.6815    0.0000 C   0  0  0  0  0  0  0  0  0  0  0  0
   -0.2543    2.0903    0.0000 N   0  0  0  0  0  0  0  0  0  0  0  0
   -1.6814    0.4425    0.0000 C   0  0  0  0  0  0  0  0  0  0  0  0
   -2.4724    0.6769    0.0000 C   0  0  0  0  0  0  0  0  0  0  0  0
   -2.9398   -0.0030    0.0000 N   0  0  0  0  0  0  0  0  0  0  0  0
   -2.4376   -0.6576    0.0000 N   0  0  0  0  0  0  0  0  0  0  0  0
   -1.6599   -0.3821    0.0000 C   0  0  0  0  0  0  0  0  0  0  0  0
   -3.7651   -0.0266    0.0000 C   0  0  0  0  0  0  0  0  0  0  0  0
   -4.1948    0.6787    0.0000 C   0  0  0  0  0  0  0  0  0  0  0  0
   -5.0160    0.6593    0.0000 C   0  0  0  0  0  0  0  0  0  0  0  0
   -5.4137   -0.0639    0.0000 N   0  0  0  0  0  0  0  0  0  0  0  0
   -4.9839   -0.7692    0.0000 C   0  0  0  0  0  0  0  0  0  0  0  0
   -4.1564   -0.7513    0.0000 C   0  0  0  0  0  0  0  0  0  0  0  0
    1.1762    2.0975    0.0000 N   0  0  0  0  0  0  0  0  0  0  0  0
    1.1818    0.4386    0.0000 O   0  0  0  0  0  0  0  0  0  0  0  0
    1.1825   -0.3864    0.0000 C   0  0  1  0  0  0  0  0  0  0  0  0
    1.8973   -0.7982    0.0000 C   0  0  0  0  0  0  0  0  0  0  0  0
    0.4685   -0.7996    0.0000 C   0  0  0  0  0  0  0  0  0  0  0  0
    1.8953   -1.6235    0.0000 C   0  0  0  0  0  0  0  0  0  0  0  0
    2.6093   -2.0354    0.0000 C   0  0  0  0  0  0  0  0  0  0  0  0
    3.3244   -1.6221    0.0000 C   0  0  0  0  0  0  0  0  0  0  0  0
    3.3210   -0.7930    0.0000 C   0  0  0  0  0  0  0  0  0  0  0  0
    2.6065   -0.3849    0.0000 C   0  0  0  0  0  0  0  0  0  0  0  0
    2.6028    0.4401    0.0000 Cl  0  0  0  0  0  0  0  0  0  0  0  0
    4.0337   -0.3773    0.0000 F   0  0  0  0  0  0  0  0  0  0  0  0
    1.1806   -2.0354    0.0000 Cl  0  0  0  0  0  0  0  0  0  0  0  0
 12 17  1  0  0  0  0
 13 14  1  0  0  0  0
 14 15  1  0  0  0  0
 15 16  1  0  0  0  0
 16 17  1  0  0  0  0
  9 12  1  0  0  0  0
  4  5  2  0  0  0  0
  5 18  1  0  0  0  0
  2  3  2  0  0  0  0
  4 19  1  0  0  0  0
  8  9  1  0  0  0  0
 20 19  1  0  0  0  0
  9 10  1  0  0  0  0
 20 21  1  0  0  0  0
 10 11  2  0  0  0  0
 20 22  1  1  0  0  0
 11  7  1  0  0  0  0
 21 23  2  0  0  0  0
  2  7  1  0  0  0  0
 23 24  1  0  0  0  0
 12 13  1  0  0  0  0
 24 25  2  0  0  0  0
  5  6  1  0  0  0  0
 25 26  1  0  0  0  0
  6  1  2  0  0  0  0
 26 27  2  0  0  0  0
 27 21  1  0  0  0  0
  7  8  2  0  0  0  0
 27 28  1  0  0  0  0
  1  2  1  0  0  0  0
 26 29  1  0  0  0  0
  3  4  1  0  0  0  0
 23 30  1  0  0  0  0
M  END
> <From>
www.bindingDB.org

> <BindingDB Reactant_set_id>
50103623

> <Ligand InChI>
InChI=1S/C21H22Cl2FN5O/c1-12(19-16(22)2-3-17(24)20(19)23)30-18-8-13(9-27-21(18)25)14-10-28-29(11-14)15-4-6-26-7-5-15/h2-3,8-12,15,26H,4-7H2,1H3,(H2,25,27)/t12-/m1/s1

> <Ligand InChI Key>
KTEIFNKAUNYNJU-GFCCVEGCSA-N

> <BindingDB MonomerID>
50306682

> <BindingDB Ligand Name>
(R)-3-(1-(2,6-dichloro-3-fluorophenyl)ethoxy)-5-(1-(piperidin-4-yl)-1H-pyrazol-4-yl)pyridin-2-amine::3-(2,6-dichloro-3-fluorobenzyloxy)-5-(1-(piperidin-4-yl)-1H-pyrazol-4-yl)pyridin-2-amine::3-[(1R)-1-(2,6-dichloro-3-fluorophenyl)ethoxy]-5-(1-piperidin-4-yl-1H-pyrazol-4-yl)pyridin-2-amine::CHEMBL601719::CRIZOTINIB::PF-2341066::US10370379, Crizotinib::US10543199, Compound Crizotinib::US10780082, Compound Crizotinib::US11059827, Compound Crizotinib::US11517561, Compound Crizotinib::US9126941, PF-2341066::US9199944, Crizotinib::US9226923, Crizotinib

> <Target Name>
ALK tyrosine kinase receptor

> <Target Source Organism According to Curator or DataSource>
Homo sapiens

> <Ki (nM)>


> <IC50 (nM)>
 1026

> <Kd (nM)>


> <EC50 (nM)>


> <kon (M-1-s-1)>


> <koff (s-1)>


> <pH>


> <Temp C>


> <Curation/DataSource>
ChEMBL

> <Article DOI>
10.1021/jm500261q

> <BindingDB Entry DOI>
10.7270/Q2K35W68

> <PMID>
24819116

> <PubChem AID>


> <Patent Number>


> <Authors>
Johnson, TW; Richardson, PF; Bailey, S; Brooun, A; Burke, BJ; Collins, MR; Cui, JJ; Deal, JG; Deng, YL; Dinh, D; Engstrom, LD; He, M; Hoffman, J; Hoffman, RL; Huang, Q; Kania, RS; Kath, JC; Lam, H; Lam, JL; Le, PT; Lingardo, L; Liu, W; McTigue, M; Palmer, CL; Sach, NW; Smeal, T; Smith, GL; Stewart, AE; Timofeevski, S; Zhu, H; Zhu, J; Zou, HY; Edwards, MP

> <Date of publication>
6/12/2014

> <Date in BindingDB>
2/11/2015

> <Institution>
Pfizer Inc

> <Link to Ligand in BindingDB>
http://www.bindingdb.org/bind/chemsearch/marvin/MolStructure.jsp?monomerid=50306682

> <Link to Ligand-Target Pair in BindingDB>
http://www.bindingdb.org/jsp/dbsearch/PrimarySearch_ki.jsp?energyterm=kJ/mole&tag=pol&polymerid=5809&target=ALK+tyrosine+kinase+receptor&column=ki&startPg=0&Increment=50&submit=Search

> <Link to Ligand-Target Pair in BindingDB>
http://www.bindingdb.org/jsp/dbsearch/PrimarySearch_ki.jsp?energyterm=kJ/mole&tag=r21&monomerid=50306682&enzyme=ALK+tyrosine+kinase+receptor&column=ki&startPg=0&Increment=50&submit=Search

> <Ligand HET ID in PDB>
VGH

> <PDB ID(s) for Ligand-Target Complex>
2YFX,5AAA,5AAC,5AAB,4ANS,4ANQ,2XP2,2WGJ,3ZBF,4C9W,6IMZ

> <PubChem CID of Ligand>
11626560

> <PubChem SID of Ligand>
104161043

> <ChEBI ID of Ligand>
64310

> <ChEMBL ID of Ligand>
CHEMBL601719

> <DrugBank ID of Ligand>
DB08700

> <IUPHAR_GRAC ID of Ligand>
4903

> <KEGG ID of Ligand>


> <ZINC ID of Ligand>
ZINC35902489

> <Number of Protein Chains in Target (bigger than 1 implies a multichain complex)>
1

> <BindingDB Target Chain Sequence>
MGAIGLLWLLPLLLSTAAVGSGMGTGQRAGSPAAGPPLQPREPLSYSRLQRKSLAVDFVVPSLFRVYARDLLLPPSSSELKAGRPEARGSLALDCAPLLRLLGPAPGVSWTAGSPAPAEARTLSRVLKGGSVRKLRRAKQLVLELGEEAILEGCVGPPGEAAVGLLQFNLSELFSWWIRQGEGRLRIRLMPEKKASEVGREGRLSAAIRASQPRLLFQIFGTGHSSLESPTNMPSPSPDYFTWNLTWIMKDSFPFLSHRSRYGLECSFDFPCELEYSPPLHDLRNQSWSWRRIPSEEASQMDLLDGPGAERSKEMPRGSFLLLNTSADSKHTILSPWMRSSSEHCTLAVSVHRHLQPSGRYIAQLLPHNEAAREILLMPTPGKHGWTVLQGRIGRPDNPFRVALEYISSGNRSLSAVDFFALKNCSEGTSPGSKMALQSSFTCWNGTVLQLGQACDFHQDCAQGEDESQMCRKLPVGFYCNFEDGFCGWTQGTLSPHTPQWQVRTLKDARFQDHQDHALLLSTTDVPASESATVTSATFPAPIKSSPCELRMSWLIRGVLRGNVSLVLVENKTGKEQGRMVWHVAAYEGLSLWQWMVLPLLDVSDRFWLQMVAWWGQGSRAIVAFDNISISLDCYLTISGEDKILQNTAPKSRNLFERNPNKELKPGENSPRQTPIFDPTVHWLFTTCGASGPHGPTQAQCNNAYQNSNLSVEVGSEGPLKGIQIWKVPATDTYSISGYGAAGGKGGKNTMMRSHGVSVLGIFNLEKDDMLYILVGQQGEDACPSTNQLIQKVCIGENNVIEEEIRVNRSVHEWAGGGGGGGGATYVFKMKDGVPVPLIIAAGGGGRAYGAKTDTFHPERLENNSSVLGLNGNSGAAGGGGGWNDNTSLLWAGKSLQEGATGGHSCPQAMKKWGWETRGGFGGGGGGCSSGGGGGGYIGGNAASNNDPEMDGEDGVSFISPLGILYTPALKVMEGHGEVNIKHYLNCSHCEVDECHMDPESHKVICFCDHGTVLAEDGVSCIVSPTPEPHLPLSLILSVVTSALVAALVLAFSGIMIVYRRKHQELQAMQMELQSPEYKLSKLRTSTIMTDYNPNYCFAGKTSSISDLKEVPRKNITLIRGLGHGAFGEVYEGQVSGMPNDPSPLQVAVKTLPEVCSEQDELDFLMEALIISKFNHQNIVRCIGVSLQSLPRFILLELMAGGDLKSFLRETRPRPSQPSSLAMLDLLHVARDIACGCQYLEENHFIHRDIAARNCLLTCPGPGRVAKIGDFGMARDIYRASYYRKGGCAMLPVKWMPPEAFMEGIFTSKTDTWSFGVLLWEIFSLGYMPYPSKSNQEVLEFVTSGGRMDPPKNCPGPVYRIMTQCWQHQPEDRPNFAIILERIEYCTQDPDVINTALPIEYGPLVEEEEKVPVRPKDPEGVPPLLVSQQAKREEERSPAAPPPLPTTSSGKAAKKPTAAEISVRVPRGPAVEGGHVNMAFSQSNPPSELHKVHGSRNKPTSLWNPTYGSWFTEKPTKKNNPIAKKEPHDRGNLGLEGSCTVPPNVATGRLPGASLLLEPSSLTANMKEVPLFRLRHFPCGNVNYGYQQQGLPLEAATAPGAGHYEDTILKSKNSMNQPGP

> <PDB ID(s) of Target Chain>
2XB7,2XBA,3AOX,5FTO,5FTQ,6E0R,6EBW,6EDL,6MX8,7JY4,7JYR,7JYS,7JYT,7LS0,7MZW,7MZY,7N00,7NX3,7NX4,8ARJ

> <UniProt (SwissProt) Recommended Name of Target Chain>
ALK tyrosine kinase receptor

> <UniProt (SwissProt) Entry Name of Target Chain>
ALK_HUMAN

> <UniProt (SwissProt) Primary ID of Target Chain>
Q9UM73

> <UniProt (SwissProt) Secondary ID(s) of Target Chain>
A6P4T4 A6P4V4 Q4ZFX9 Q53QQ6 Q53RZ4 Q59FI3 Q9Y4K6

> <UniProt (SwissProt) Alternative ID(s) of Target Chain>


> <UniProt (TrEMBL) Submitted Name of Target Chain>


> <UniProt (TrEMBL) Entry Name of Target Chain>


> <UniProt (TrEMBL) Primary ID of Target Chain>


> <UniProt (TrEMBL) Secondary ID(s) of Target Chain>


> <UniProt (TrEMBL) Alternative ID(s) of Target Chain>


$$$$
 
  Mrv0541 11221423062D          

 30 33  0  0  0  0            999 V2000
   -0.9640    1.6774    0.0000 C   0  0  0  0  0  0  0  0  0  0  0  0
   -0.9653    0.8499    0.0000 C   0  0  0  0  0  0  0  0  0  0  0  0
   -0.2523    0.4370    0.0000 C   0  0  0  0  0  0  0  0  0  0  0  0
    0.4669    0.8504    0.0000 C   0  0  0  0  0  0  0  0  0  0  0  0
    0.4637    1.6815    0.0000 C   0  0  0  0  0  0  0  0  0  0  0  0
   -0.2543    2.0903    0.0000 N   0  0  0  0  0  0  0  0  0  0  0  0
   -1.6814    0.4425    0.0000 C   0  0  0  0  0  0  0  0  0  0  0  0
   -2.4724    0.6769    0.0000 C   0  0  0  0  0  0  0  0  0  0  0  0
   -2.9398   -0.0030    0.0000 N   0  0  0  0  0  0  0  0  0  0  0  0
   -2.4376   -0.6576    0.0000 N   0  0  0  0  0  0  0  0  0  0  0  0
   -1.6599   -0.3821    0.0000 C   0  0  0  0  0  0  0  0  0  0  0  0
   -3.7651   -0.0266    0.0000 C   0  0  0  0  0  0  0  0  0  0  0  0
   -4.1948    0.6787    0.0000 C   0  0  0  0  0  0  0  0  0  0  0  0
   -5.0160    0.6593    0.0000 C   0  0  0  0  0  0  0  0  0  0  0  0
   -5.4137   -0.0639    0.0000 N   0  0  0  0  0  0  0  0  0  0  0  0
   -4.9839   -0.7692    0.0000 C   0  0  0  0  0  0  0  0  0  0  0  0
   -4.1564   -0.7513    0.0000 C   0  0  0  0  0  0  0  0  0  0  0  0
    1.1762    2.0975    0.0000 N   0  0  0  0  0  0  0  0  0  0  0  0
    1.1818    0.4386    0.0000 O   0  0  0  0  0  0  0  0  0  0  0  0
    1.1825   -0.3864    0.0000 C   0  0  1  0  0  0  0  0  0  0  0  0
    1.8973   -0.7982    0.0000 C   0  0  0  0  0  0  0  0  0  0  0  0
    0.4685   -0.7996    0.0000 C   0  0  0  0  0  0  0  0  0  0  0  0
    1.8953   -1.6235    0.0000 C   0  0  0  0  0  0  0  0  0  0  0  0
    2.6093   -2.0354    0.0000 C   0  0  0  0  0  0  0  0  0  0  0  0
    3.3244   -1.6221    0.0000 C   0  0  0  0  0  0  0  0  0  0  0  0
    3.3210   -0.7930    0.0000 C   0  0  0  0  0  0  0  0  0  0  0  0
    2.6065   -0.3849    0.0000 C   0  0  0  0  0  0  0  0  0  0  0  0
    2.6028    0.4401    0.0000 Cl  0  0  0  0  0  0  0  0  0  0  0  0
    4.0337   -0.3773    0.0000 F   0  0  0  0  0  0  0  0  0  0  0  0
    1.1806   -2.0354    0.0000 Cl  0  0  0  0  0  0  0  0  0  0  0  0
 12 17  1  0  0  0  0
 13 14  1  0  0  0  0
 14 15  1  0  0  0  0
 15 16  1  0  0  0  0
 16 17  1  0  0  0  0
  9 12  1  0  0  0  0
  4  5  2  0  0  0  0
  5 18  1  0  0  0  0
  2  3  2  0  0  0  0
  4 19  1  0  0  0  0
  8  9  1  0  0  0  0
 20 19  1  0  0  0  0
  9 10  1  0  0  0  0
 20 21  1  0  0  0  0
 10 11  2  0  0  0  0
 20 22  1  1  0  0  0
 11  7  1  0  0  0  0
 21 23  2  0  0  0  0
  2  7  1  0  0  0  0
 23 24  1  0  0  0  0
 12 13  1  0  0  0  0
 24 25  2  0  0  0  0
  5  6  1  0  0  0  0
 25 26  1  0  0  0  0
  6  1  2  0  0  0  0
 26 27  2  0  0  0  0
 27 21  1  0  0  0  0
  7  8  2  0  0  0  0
 27 28  1  0  0  0  0
  1  2  1  0  0  0  0
 26 29  1  0  0  0  0
  3  4  1  0  0  0  0
 23 30  1  0  0  0  0
M  END
> <From>
www.bindingDB.org

> <BindingDB Reactant_set_id>
50103625

> <Ligand InChI>
InChI=1S/C21H22Cl2FN5O/c1-12(19-16(22)2-3-17(24)20(19)23)30-18-8-13(9-27-21(18)25)14-10-28-29(11-14)15-4-6-26-7-5-15/h2-3,8-12,15,26H,4-7H2,1H3,(H2,25,27)/t12-/m1/s1

> <Ligand InChI Key>
KTEIFNKAUNYNJU-GFCCVEGCSA-N

> <BindingDB MonomerID>
50306682

> <BindingDB Ligand Name>
(R)-3-(1-(2,6-dichloro-3-fluorophenyl)ethoxy)-5-(1-(piperidin-4-yl)-1H-pyrazol-4-yl)pyridin-2-amine::3-(2,6-dichloro-3-fluorobenzyloxy)-5-(1-(piperidin-4-yl)-1H-pyrazol-4-yl)pyridin-2-amine::3-[(1R)-1-(2,6-dichloro-3-fluorophenyl)ethoxy]-5-(1-piperidin-4-yl-1H-pyrazol-4-yl)pyridin-2-amine::CHEMBL601719::CRIZOTINIB::PF-2341066::US10370379, Crizotinib::US10543199, Compound Crizotinib::US10780082, Compound Crizotinib::US11059827, Compound Crizotinib::US11517561, Compound Crizotinib::US9126941, PF-2341066::US9199944, Crizotinib::US9226923, Crizotinib

> <Target Name>
ALK tyrosine kinase receptor

> <Target Source Organism According to Curator or DataSource>
Homo sapiens

> <Ki (nM)>


> <IC50 (nM)>
 1148

> <Kd (nM)>


> <EC50 (nM)>


> <kon (M-1-s-1)>


> <koff (s-1)>


> <pH>


> <Temp C>


> <Curation/DataSource>
ChEMBL

> <Article DOI>
10.1021/jm500261q

> <BindingDB Entry DOI>
10.7270/Q2K35W68

> <PMID>
24819116

> <PubChem AID>


> <Patent Number>


> <Authors>
Johnson, TW; Richardson, PF; Bailey, S; Brooun, A; Burke, BJ; Collins, MR; Cui, JJ; Deal, JG; Deng, YL; Dinh, D; Engstrom, LD; He, M; Hoffman, J; Hoffman, RL; Huang, Q; Kania, RS; Kath, JC; Lam, H; Lam, JL; Le, PT; Lingardo, L; Liu, W; McTigue, M; Palmer, CL; Sach, NW; Smeal, T; Smith, GL; Stewart, AE; Timofeevski, S; Zhu, H; Zhu, J; Zou, HY; Edwards, MP

> <Date of publication>
6/12/2014

> <Date in BindingDB>
2/11/2015

> <Institution>
Pfizer Inc

> <Link to Ligand in BindingDB>
http://www.bindingdb.org/bind/chemsearch/marvin/MolStructure.jsp?monomerid=50306682

> <Link to Ligand-Target Pair in BindingDB>
http://www.bindingdb.org/jsp/dbsearch/PrimarySearch_ki.jsp?energyterm=kJ/mole&tag=pol&polymerid=5809&target=ALK+tyrosine+kinase+receptor&column=ki&startPg=0&Increment=50&submit=Search

> <Link to Ligand-Target Pair in BindingDB>
http://www.bindingdb.org/jsp/dbsearch/PrimarySearch_ki.jsp?energyterm=kJ/mole&tag=r21&monomerid=50306682&enzyme=ALK+tyrosine+kinase+receptor&column=ki&startPg=0&Increment=50&submit=Search

> <Ligand HET ID in PDB>
VGH

> <PDB ID(s) for Ligand-Target Complex>
2YFX,5AAA,5AAC,5AAB,4ANS,4ANQ,2XP2,2WGJ,3ZBF,4C9W,6IMZ

> <PubChem CID of Ligand>
11626560

> <PubChem SID of Ligand>
104161043

> <ChEBI ID of Ligand>
64310

> <ChEMBL ID of Ligand>
CHEMBL601719

> <DrugBank ID of Ligand>
DB08700

> <IUPHAR_GRAC ID of Ligand>
4903

> <KEGG ID of Ligand>


> <ZINC ID of Ligand>
ZINC35902489

> <Number of Protein Chains in Target (bigger than 1 implies a multichain complex)>
1

> <BindingDB Target Chain Sequence>
MGAIGLLWLLPLLLSTAAVGSGMGTGQRAGSPAAGPPLQPREPLSYSRLQRKSLAVDFVVPSLFRVYARDLLLPPSSSELKAGRPEARGSLALDCAPLLRLLGPAPGVSWTAGSPAPAEARTLSRVLKGGSVRKLRRAKQLVLELGEEAILEGCVGPPGEAAVGLLQFNLSELFSWWIRQGEGRLRIRLMPEKKASEVGREGRLSAAIRASQPRLLFQIFGTGHSSLESPTNMPSPSPDYFTWNLTWIMKDSFPFLSHRSRYGLECSFDFPCELEYSPPLHDLRNQSWSWRRIPSEEASQMDLLDGPGAERSKEMPRGSFLLLNTSADSKHTILSPWMRSSSEHCTLAVSVHRHLQPSGRYIAQLLPHNEAAREILLMPTPGKHGWTVLQGRIGRPDNPFRVALEYISSGNRSLSAVDFFALKNCSEGTSPGSKMALQSSFTCWNGTVLQLGQACDFHQDCAQGEDESQMCRKLPVGFYCNFEDGFCGWTQGTLSPHTPQWQVRTLKDARFQDHQDHALLLSTTDVPASESATVTSATFPAPIKSSPCELRMSWLIRGVLRGNVSLVLVENKTGKEQGRMVWHVAAYEGLSLWQWMVLPLLDVSDRFWLQMVAWWGQGSRAIVAFDNISISLDCYLTISGEDKILQNTAPKSRNLFERNPNKELKPGENSPRQTPIFDPTVHWLFTTCGASGPHGPTQAQCNNAYQNSNLSVEVGSEGPLKGIQIWKVPATDTYSISGYGAAGGKGGKNTMMRSHGVSVLGIFNLEKDDMLYILVGQQGEDACPSTNQLIQKVCIGENNVIEEEIRVNRSVHEWAGGGGGGGGATYVFKMKDGVPVPLIIAAGGGGRAYGAKTDTFHPERLENNSSVLGLNGNSGAAGGGGGWNDNTSLLWAGKSLQEGATGGHSCPQAMKKWGWETRGGFGGGGGGCSSGGGGGGYIGGNAASNNDPEMDGEDGVSFISPLGILYTPALKVMEGHGEVNIKHYLNCSHCEVDECHMDPESHKVICFCDHGTVLAEDGVSCIVSPTPEPHLPLSLILSVVTSALVAALVLAFSGIMIVYRRKHQELQAMQMELQSPEYKLSKLRTSTIMTDYNPNYCFAGKTSSISDLKEVPRKNITLIRGLGHGAFGEVYEGQVSGMPNDPSPLQVAVKTLPEVCSEQDELDFLMEALIISKFNHQNIVRCIGVSLQSLPRFILLELMAGGDLKSFLRETRPRPSQPSSLAMLDLLHVARDIACGCQYLEENHFIHRDIAARNCLLTCPGPGRVAKIGDFGMARDIYRASYYRKGGCAMLPVKWMPPEAFMEGIFTSKTDTWSFGVLLWEIFSLGYMPYPSKSNQEVLEFVTSGGRMDPPKNCPGPVYRIMTQCWQHQPEDRPNFAIILERIEYCTQDPDVINTALPIEYGPLVEEEEKVPVRPKDPEGVPPLLVSQQAKREEERSPAAPPPLPTTSSGKAAKKPTAAEISVRVPRGPAVEGGHVNMAFSQSNPPSELHKVHGSRNKPTSLWNPTYGSWFTEKPTKKNNPIAKKEPHDRGNLGLEGSCTVPPNVATGRLPGASLLLEPSSLTANMKEVPLFRLRHFPCGNVNYGYQQQGLPLEAATAPGAGHYEDTILKSKNSMNQPGP

> <PDB ID(s) of Target Chain>
2XB7,2XBA,3AOX,5FTO,5FTQ,6E0R,6EBW,6EDL,6MX8,7JY4,7JYR,7JYS,7JYT,7LS0,7MZW,7MZY,7N00,7NX3,7NX4,8ARJ

> <UniProt (SwissProt) Recommended Name of Target Chain>
ALK tyrosine kinase receptor

> <UniProt (SwissProt) Entry Name of Target Chain>
ALK_HUMAN

> <UniProt (SwissProt) Primary ID of Target Chain>
Q9UM73

> <UniProt (SwissProt) Secondary ID(s) of Target Chain>
A6P4T4 A6P4V4 Q4ZFX9 Q53QQ6 Q53RZ4 Q59FI3 Q9Y4K6

> <UniProt (SwissProt) Alternative ID(s) of Target Chain>


> <UniProt (TrEMBL) Submitted Name of Target Chain>


> <UniProt (TrEMBL) Entry Name of Target Chain>


> <UniProt (TrEMBL) Primary ID of Target Chain>


> <UniProt (TrEMBL) Secondary ID(s) of Target Chain>


> <UniProt (TrEMBL) Alternative ID(s) of Target Chain>


$$$$

  SciTegic09261414532D

 29 32  0  0  0  0            999 V2000
   15.1954   -4.7994    0.0000 O   0  0
   14.4745   -5.1942    0.0000 C   0  0  2  0  0  0
   13.7691   -4.7653    0.0000 C   0  0
   13.7936   -3.9416    0.0000 C   0  0
   13.0891   -3.5129    0.0000 C   0  0
   12.3672   -3.9076    0.0000 C   0  0
   12.3503   -4.7357    0.0000 C   0  0
   13.0555   -5.1605    0.0000 C   0  0
   14.5199   -3.5491    0.0000 C   0  0
   11.6266   -5.1331    0.0000 F   0  0
   18.0689   -4.0384    0.0000 C   0  0
   15.8818   -5.2274    0.0000 C   0  0
   17.3299   -5.2628    0.0000 C   0  0
   15.8820   -6.0535    0.0000 C   0  0
   16.6278   -4.8334    0.0000 N   0  0
   17.3102   -6.0876    0.0000 C   0  0
   16.5884   -6.4829    0.0000 N   0  0
   15.1560   -6.4488    0.0000 N   0  0
   18.0534   -4.8675    0.0000 C   0  0
   18.8297   -5.1364    0.0000 C   0  0
   19.3303   -4.4802    0.0000 N   0  0
   18.8599   -3.8066    0.0000 N   0  0
   19.0680   -5.9236    0.0000 C   0  0
   14.0559   -5.9069    0.0000 C   0  0
   15.2360   -3.9898    0.0000 O   0  0
   14.5436   -2.7086    0.0000 N   0  0
   15.2832   -2.3088    0.0000 C   0  0
   13.8275   -2.2679    0.0000 C   0  0
   19.1388   -3.0134    0.0000 C   0  0
 12  1  1  0
  1  2  1  0
  2  3  1  0
  3  4  2  0
  4  5  1  0
  5  6  2  0
  6  7  1  0
  7  8  2  0
  8  3  1  0
  4  9  1  0
  7 10  1  0
 14 12  1  0
 12 15  2  0
 15 13  1  0
 13 16  2  0
 16 17  1  0
 14 17  2  0
 14 18  1  0
 13 19  1  0
 11 19  2  0
 19 20  1  0
 20 21  2  0
 21 22  1  0
 22 11  1  0
 20 23  1  0
  2 24  1  1
  9 25  2  0
  9 26  1  0
 26 27  1  0
 26 28  1  0
 27 11  1  0
 22 29  1  0
M  END
> <From>
www.bindingDB.org

> <BindingDB Reactant_set_id>
50103579

> <Ligand InChI>
InChI=1S/C20H21FN6O2/c1-10-17-15-8-23-18(22)19(24-15)29-11(2)14-7-12(21)5-6-13(14)20(28)26(3)9-16(17)27(4)25-10/h5-8,11H,9H2,1-4H3,(H2,22,23)/t11-/m0/s1

> <Ligand InChI Key>
BOSKQVUEUWJLFT-NSHDSACASA-N

> <BindingDB MonomerID>
50018834

> <BindingDB Ligand Name>
CHEMBL3286824

> <Target Name>
ALK tyrosine kinase receptor

> <Target Source Organism According to Curator or DataSource>
Homo sapiens

> <Ki (nM)>


> <IC50 (nM)>
 1230

> <Kd (nM)>


> <EC50 (nM)>


> <kon (M-1-s-1)>


> <koff (s-1)>


> <pH>


> <Temp C>


> <Curation/DataSource>
ChEMBL

> <Article DOI>
10.1021/jm500261q

> <BindingDB Entry DOI>
10.7270/Q2K35W68

> <PMID>
24819116

> <PubChem AID>


> <Patent Number>


> <Authors>
Johnson, TW; Richardson, PF; Bailey, S; Brooun, A; Burke, BJ; Collins, MR; Cui, JJ; Deal, JG; Deng, YL; Dinh, D; Engstrom, LD; He, M; Hoffman, J; Hoffman, RL; Huang, Q; Kania, RS; Kath, JC; Lam, H; Lam, JL; Le, PT; Lingardo, L; Liu, W; McTigue, M; Palmer, CL; Sach, NW; Smeal, T; Smith, GL; Stewart, AE; Timofeevski, S; Zhu, H; Zhu, J; Zou, HY; Edwards, MP

> <Date of publication>
6/12/2014

> <Date in BindingDB>
2/11/2015

> <Institution>
Pfizer Inc

> <Link to Ligand in BindingDB>
http://www.bindingdb.org/bind/chemsearch/marvin/MolStructure.jsp?monomerid=50018834

> <Link to Ligand-Target Pair in BindingDB>
http://www.bindingdb.org/jsp/dbsearch/PrimarySearch_ki.jsp?energyterm=kJ/mole&tag=pol&polymerid=5809&target=ALK+tyrosine+kinase+receptor&column=ki&startPg=0&Increment=50&submit=Search

> <Link to Ligand-Target Pair in BindingDB>
http://www.bindingdb.org/jsp/dbsearch/PrimarySearch_ki.jsp?energyterm=kJ/mole&tag=r21&monomerid=50018834&enzyme=ALK+tyrosine+kinase+receptor&column=ki&startPg=0&Increment=50&submit=Search

> <Ligand HET ID in PDB>


> <PDB ID(s) for Ligand-Target Complex>


> <PubChem CID of Ligand>
90644200

> <PubChem SID of Ligand>
103929887

> <ChEBI ID of Ligand>


> <ChEMBL ID of Ligand>
CHEMBL3286824

> <DrugBank ID of Ligand>


> <IUPHAR_GRAC ID of Ligand>


> <KEGG ID of Ligand>


> <ZINC ID of Ligand>
ZINC36080054

> <Number of Protein Chains in Target (bigger than 1 implies a multichain complex)>
1

> <BindingDB Target Chain Sequence>
MGAIGLLWLLPLLLSTAAVGSGMGTGQRAGSPAAGPPLQPREPLSYSRLQRKSLAVDFVVPSLFRVYARDLLLPPSSSELKAGRPEARGSLALDCAPLLRLLGPAPGVSWTAGSPAPAEARTLSRVLKGGSVRKLRRAKQLVLELGEEAILEGCVGPPGEAAVGLLQFNLSELFSWWIRQGEGRLRIRLMPEKKASEVGREGRLSAAIRASQPRLLFQIFGTGHSSLESPTNMPSPSPDYFTWNLTWIMKDSFPFLSHRSRYGLECSFDFPCELEYSPPLHDLRNQSWSWRRIPSEEASQMDLLDGPGAERSKEMPRGSFLLLNTSADSKHTILSPWMRSSSEHCTLAVSVHRHLQPSGRYIAQLLPHNEAAREILLMPTPGKHGWTVLQGRIGRPDNPFRVALEYISSGNRSLSAVDFFALKNCSEGTSPGSKMALQSSFTCWNGTVLQLGQACDFHQDCAQGEDESQMCRKLPVGFYCNFEDGFCGWTQGTLSPHTPQWQVRTLKDARFQDHQDHALLLSTTDVPASESATVTSATFPAPIKSSPCELRMSWLIRGVLRGNVSLVLVENKTGKEQGRMVWHVAAYEGLSLWQWMVLPLLDVSDRFWLQMVAWWGQGSRAIVAFDNISISLDCYLTISGEDKILQNTAPKSRNLFERNPNKELKPGENSPRQTPIFDPTVHWLFTTCGASGPHGPTQAQCNNAYQNSNLSVEVGSEGPLKGIQIWKVPATDTYSISGYGAAGGKGGKNTMMRSHGVSVLGIFNLEKDDMLYILVGQQGEDACPSTNQLIQKVCIGENNVIEEEIRVNRSVHEWAGGGGGGGGATYVFKMKDGVPVPLIIAAGGGGRAYGAKTDTFHPERLENNSSVLGLNGNSGAAGGGGGWNDNTSLLWAGKSLQEGATGGHSCPQAMKKWGWETRGGFGGGGGGCSSGGGGGGYIGGNAASNNDPEMDGEDGVSFISPLGILYTPALKVMEGHGEVNIKHYLNCSHCEVDECHMDPESHKVICFCDHGTVLAEDGVSCIVSPTPEPHLPLSLILSVVTSALVAALVLAFSGIMIVYRRKHQELQAMQMELQSPEYKLSKLRTSTIMTDYNPNYCFAGKTSSISDLKEVPRKNITLIRGLGHGAFGEVYEGQVSGMPNDPSPLQVAVKTLPEVCSEQDELDFLMEALIISKFNHQNIVRCIGVSLQSLPRFILLELMAGGDLKSFLRETRPRPSQPSSLAMLDLLHVARDIACGCQYLEENHFIHRDIAARNCLLTCPGPGRVAKIGDFGMARDIYRASYYRKGGCAMLPVKWMPPEAFMEGIFTSKTDTWSFGVLLWEIFSLGYMPYPSKSNQEVLEFVTSGGRMDPPKNCPGPVYRIMTQCWQHQPEDRPNFAIILERIEYCTQDPDVINTALPIEYGPLVEEEEKVPVRPKDPEGVPPLLVSQQAKREEERSPAAPPPLPTTSSGKAAKKPTAAEISVRVPRGPAVEGGHVNMAFSQSNPPSELHKVHGSRNKPTSLWNPTYGSWFTEKPTKKNNPIAKKEPHDRGNLGLEGSCTVPPNVATGRLPGASLLLEPSSLTANMKEVPLFRLRHFPCGNVNYGYQQQGLPLEAATAPGAGHYEDTILKSKNSMNQPGP

> <PDB ID(s) of Target Chain>
2XB7,2XBA,3AOX,5FTO,5FTQ,6E0R,6EBW,6EDL,6MX8,7JY4,7JYR,7JYS,7JYT,7LS0,7MZW,7MZY,7N00,7NX3,7NX4,8ARJ

> <UniProt (SwissProt) Recommended Name of Target Chain>
ALK tyrosine kinase receptor

> <UniProt (SwissProt) Entry Name of Target Chain>
ALK_HUMAN

> <UniProt (SwissProt) Primary ID of Target Chain>
Q9UM73

> <UniProt (SwissProt) Secondary ID(s) of Target Chain>
A6P4T4 A6P4V4 Q4ZFX9 Q53QQ6 Q53RZ4 Q59FI3 Q9Y4K6

> <UniProt (SwissProt) Alternative ID(s) of Target Chain>


> <UniProt (TrEMBL) Submitted Name of Target Chain>


> <UniProt (TrEMBL) Entry Name of Target Chain>


> <UniProt (TrEMBL) Primary ID of Target Chain>


> <UniProt (TrEMBL) Secondary ID(s) of Target Chain>


> <UniProt (TrEMBL) Alternative ID(s) of Target Chain>


$$$$

  SciTegic09261414532D

 28 30  0  0  0  0            999 V2000
    5.9843  -11.3234    0.0000 C   0  0
    6.7184  -11.6748    0.0000 C   0  0
    7.2800  -11.0797    0.0000 N   0  0
    6.8875  -10.3616    0.0000 N   0  0
    6.0833  -10.5131    0.0000 C   0  0
    5.2622  -11.7145    0.0000 C   0  0
    3.8261  -12.4994    0.0000 C   0  0
    3.8452  -11.6814    0.0000 C   0  0
    4.5632  -11.2889    0.0000 C   0  0
    5.2430  -12.5325    0.0000 C   0  0
    4.5250  -12.9250    0.0000 N   0  0
    3.1081  -12.8919    0.0000 N   0  0
    3.1463  -11.2558    0.0000 O   0  0
    3.1657  -10.4374    0.0000 C   0  0  2  0  0  0
    3.9030  -10.0833    0.0000 C   0  0
    2.4629  -10.0182    0.0000 C   0  0
    1.7485  -10.4171    0.0000 C   0  0
    1.0457   -9.9978    0.0000 C   0  0
    1.0575   -9.1796    0.0000 C   0  0
    1.7720   -8.7807    0.0000 C   0  0
    2.4747   -9.1999    0.0000 C   0  0
    0.3313  -10.3967    0.0000 F   0  0
    7.2371   -9.6230    0.0000 C   0  0
    6.8678  -12.4782    0.0000 C   0  0
    3.1882   -8.8016    0.0000 C   0  0
    3.8900   -9.2203    0.0000 O   0  0
    3.1999   -7.9844    0.0000 N   0  0
    2.4982   -7.5657    0.0000 C   0  0
  6  1  1  0
  1  2  1  0
  2  3  2  0
  3  4  1  0
  4  5  1  0
  5  1  2  0
  7  8  1  0
  8  9  2  0
  9  6  1  0
  6 10  2  0
 10 11  1  0
  7 11  2  0
  7 12  1  0
 14 15  1  1
 13 14  1  0
 16 17  1  0
 17 18  2  0
 18 19  1  0
 19 20  2  0
 20 21  1  0
 16 21  2  0
 18 22  1  0
 14 16  1  0
  8 13  1  0
  4 23  1  0
  2 24  1  0
 21 25  1  0
 25 26  2  0
 25 27  1  0
 27 28  1  0
M  END
> <From>
www.bindingDB.org

> <BindingDB Reactant_set_id>
50103706

> <Ligand InChI>
InChI=1S/C20H22FN5O2/c1-11-17(10-26(4)25-11)13-7-18(19(22)24-9-13)28-12(2)16-8-14(21)5-6-15(16)20(27)23-3/h5-10,12H,1-4H3,(H2,22,24)(H,23,27)/t12-/m1/s1

> <Ligand InChI Key>
WKWCRLSGXLINPN-GFCCVEGCSA-N

> <BindingDB MonomerID>
50018819

> <BindingDB Ligand Name>
CHEMBL3286809

> <Target Name>
ALK tyrosine kinase receptor

> <Target Source Organism According to Curator or DataSource>
Homo sapiens

> <Ki (nM)>


> <IC50 (nM)>
 1665

> <Kd (nM)>


> <EC50 (nM)>


> <kon (M-1-s-1)>


> <koff (s-1)>


> <pH>


> <Temp C>


> <Curation/DataSource>
ChEMBL

> <Article DOI>
10.1021/jm500261q

> <BindingDB Entry DOI>
10.7270/Q2K35W68

> <PMID>
24819116

> <PubChem AID>


> <Patent Number>


> <Authors>
Johnson, TW; Richardson, PF; Bailey, S; Brooun, A; Burke, BJ; Collins, MR; Cui, JJ; Deal, JG; Deng, YL; Dinh, D; Engstrom, LD; He, M; Hoffman, J; Hoffman, RL; Huang, Q; Kania, RS; Kath, JC; Lam, H; Lam, JL; Le, PT; Lingardo, L; Liu, W; McTigue, M; Palmer, CL; Sach, NW; Smeal, T; Smith, GL; Stewart, AE; Timofeevski, S; Zhu, H; Zhu, J; Zou, HY; Edwards, MP

> <Date of publication>
6/12/2014

> <Date in BindingDB>
2/11/2015

> <Institution>
Pfizer Inc

> <Link to Ligand in BindingDB>
http://www.bindingdb.org/bind/chemsearch/marvin/MolStructure.jsp?monomerid=50018819

> <Link to Ligand-Target Pair in BindingDB>
http://www.bindingdb.org/jsp/dbsearch/PrimarySearch_ki.jsp?energyterm=kJ/mole&tag=pol&polymerid=5809&target=ALK+tyrosine+kinase+receptor&column=ki&startPg=0&Increment=50&submit=Search

> <Link to Ligand-Target Pair in BindingDB>
http://www.bindingdb.org/jsp/dbsearch/PrimarySearch_ki.jsp?energyterm=kJ/mole&tag=r21&monomerid=50018819&enzyme=ALK+tyrosine+kinase+receptor&column=ki&startPg=0&Increment=50&submit=Search

> <Ligand HET ID in PDB>


> <PDB ID(s) for Ligand-Target Complex>


> <PubChem CID of Ligand>
90644194

> <PubChem SID of Ligand>
103929872

> <ChEBI ID of Ligand>


> <ChEMBL ID of Ligand>
CHEMBL3286809

> <DrugBank ID of Ligand>


> <IUPHAR_GRAC ID of Ligand>


> <KEGG ID of Ligand>


> <ZINC ID of Ligand>
ZINC13364392

> <Number of Protein Chains in Target (bigger than 1 implies a multichain complex)>
1

> <BindingDB Target Chain Sequence>
MGAIGLLWLLPLLLSTAAVGSGMGTGQRAGSPAAGPPLQPREPLSYSRLQRKSLAVDFVVPSLFRVYARDLLLPPSSSELKAGRPEARGSLALDCAPLLRLLGPAPGVSWTAGSPAPAEARTLSRVLKGGSVRKLRRAKQLVLELGEEAILEGCVGPPGEAAVGLLQFNLSELFSWWIRQGEGRLRIRLMPEKKASEVGREGRLSAAIRASQPRLLFQIFGTGHSSLESPTNMPSPSPDYFTWNLTWIMKDSFPFLSHRSRYGLECSFDFPCELEYSPPLHDLRNQSWSWRRIPSEEASQMDLLDGPGAERSKEMPRGSFLLLNTSADSKHTILSPWMRSSSEHCTLAVSVHRHLQPSGRYIAQLLPHNEAAREILLMPTPGKHGWTVLQGRIGRPDNPFRVALEYISSGNRSLSAVDFFALKNCSEGTSPGSKMALQSSFTCWNGTVLQLGQACDFHQDCAQGEDESQMCRKLPVGFYCNFEDGFCGWTQGTLSPHTPQWQVRTLKDARFQDHQDHALLLSTTDVPASESATVTSATFPAPIKSSPCELRMSWLIRGVLRGNVSLVLVENKTGKEQGRMVWHVAAYEGLSLWQWMVLPLLDVSDRFWLQMVAWWGQGSRAIVAFDNISISLDCYLTISGEDKILQNTAPKSRNLFERNPNKELKPGENSPRQTPIFDPTVHWLFTTCGASGPHGPTQAQCNNAYQNSNLSVEVGSEGPLKGIQIWKVPATDTYSISGYGAAGGKGGKNTMMRSHGVSVLGIFNLEKDDMLYILVGQQGEDACPSTNQLIQKVCIGENNVIEEEIRVNRSVHEWAGGGGGGGGATYVFKMKDGVPVPLIIAAGGGGRAYGAKTDTFHPERLENNSSVLGLNGNSGAAGGGGGWNDNTSLLWAGKSLQEGATGGHSCPQAMKKWGWETRGGFGGGGGGCSSGGGGGGYIGGNAASNNDPEMDGEDGVSFISPLGILYTPALKVMEGHGEVNIKHYLNCSHCEVDECHMDPESHKVICFCDHGTVLAEDGVSCIVSPTPEPHLPLSLILSVVTSALVAALVLAFSGIMIVYRRKHQELQAMQMELQSPEYKLSKLRTSTIMTDYNPNYCFAGKTSSISDLKEVPRKNITLIRGLGHGAFGEVYEGQVSGMPNDPSPLQVAVKTLPEVCSEQDELDFLMEALIISKFNHQNIVRCIGVSLQSLPRFILLELMAGGDLKSFLRETRPRPSQPSSLAMLDLLHVARDIACGCQYLEENHFIHRDIAARNCLLTCPGPGRVAKIGDFGMARDIYRASYYRKGGCAMLPVKWMPPEAFMEGIFTSKTDTWSFGVLLWEIFSLGYMPYPSKSNQEVLEFVTSGGRMDPPKNCPGPVYRIMTQCWQHQPEDRPNFAIILERIEYCTQDPDVINTALPIEYGPLVEEEEKVPVRPKDPEGVPPLLVSQQAKREEERSPAAPPPLPTTSSGKAAKKPTAAEISVRVPRGPAVEGGHVNMAFSQSNPPSELHKVHGSRNKPTSLWNPTYGSWFTEKPTKKNNPIAKKEPHDRGNLGLEGSCTVPPNVATGRLPGASLLLEPSSLTANMKEVPLFRLRHFPCGNVNYGYQQQGLPLEAATAPGAGHYEDTILKSKNSMNQPGP

> <PDB ID(s) of Target Chain>
2XB7,2XBA,3AOX,5FTO,5FTQ,6E0R,6EBW,6EDL,6MX8,7JY4,7JYR,7JYS,7JYT,7LS0,7MZW,7MZY,7N00,7NX3,7NX4,8ARJ

> <UniProt (SwissProt) Recommended Name of Target Chain>
ALK tyrosine kinase receptor

> <UniProt (SwissProt) Entry Name of Target Chain>
ALK_HUMAN

> <UniProt (SwissProt) Primary ID of Target Chain>
Q9UM73

> <UniProt (SwissProt) Secondary ID(s) of Target Chain>
A6P4T4 A6P4V4 Q4ZFX9 Q53QQ6 Q53RZ4 Q59FI3 Q9Y4K6

> <UniProt (SwissProt) Alternative ID(s) of Target Chain>


> <UniProt (TrEMBL) Submitted Name of Target Chain>


> <UniProt (TrEMBL) Entry Name of Target Chain>


> <UniProt (TrEMBL) Primary ID of Target Chain>


> <UniProt (TrEMBL) Secondary ID(s) of Target Chain>


> <UniProt (TrEMBL) Alternative ID(s) of Target Chain>


$$$$

  SciTegic05061409512D

 28 31  0  0  0  0            999 V2000
   10.1132  -15.5826    0.0000 C   0  0
   10.1132  -14.7576    0.0000 C   0  0
   10.8277  -14.3451    0.0000 C   0  0
   11.5422  -14.7576    0.0000 C   0  0
   11.5422  -15.5826    0.0000 C   0  0
   10.8277  -15.9951    0.0000 N   0  0
    9.3988  -15.9951    0.0000 N   0  0
   12.3429  -13.5246    0.0000 N   0  0
   13.1499  -13.3530    0.0000 N   0  0
   13.5624  -14.0675    0.0000 N   0  0
   13.0103  -14.6806    0.0000 C   0  0
   12.2567  -14.3451    0.0000 C   0  0
   11.7298  -12.9725    0.0000 C   0  0
    9.3988  -14.3451    0.0000 O   0  0
    8.6843  -14.7576    0.0000 C   0  0  2  0  0  0
    8.6843  -15.5826    0.0000 C   0  0
    7.9698  -14.3451    0.0000 C   0  0
    7.2554  -14.7576    0.0000 C   0  0
    6.5409  -14.3451    0.0000 C   0  0
    6.5409  -13.5201    0.0000 C   0  0
    7.2554  -13.1076    0.0000 C   0  0
    7.9698  -13.5201    0.0000 C   0  0
    6.5879  -16.0675    0.0000 N   0  0
    7.2554  -15.5826    0.0000 N   0  0
    7.9228  -16.0675    0.0000 N   0  0
    7.6679  -16.8521    0.0000 C   0  0
    6.8429  -16.8521    0.0000 C   0  0
    7.2554  -12.2826    0.0000 F   0  0
  1  2  1  0
  2  3  2  0
  3  4  1  0
  4  5  2  0
  5  6  1  0
  1  6  2  0
  1  7  1  0
  8  9  1  0
  9 10  2  0
 10 11  1  0
 11 12  2  0
  8 12  1  0
  8 13  1  0
  4 12  1  0
 15 16  1  6
 14 15  1  0
 17 18  1  0
 18 19  2  0
 19 20  1  0
 20 21  2  0
 21 22  1  0
 17 22  2  0
 23 24  1  0
 24 25  1  0
 25 26  2  0
 26 27  1  0
 23 27  2  0
 18 24  1  0
 21 28  1  0
 15 17  1  0
  2 14  1  0
M  END
> <From>
www.bindingDB.org

> <BindingDB Reactant_set_id>
50103704

> <Ligand InChI>
InChI=1S/C18H17FN8O/c1-11(14-8-13(19)3-4-15(14)27-23-5-6-24-27)28-17-7-12(9-21-18(17)20)16-10-22-25-26(16)2/h3-11H,1-2H3,(H2,20,21)/t11-/m1/s1

> <Ligand InChI Key>
OEAYZBGGCSQPKK-LLVKDONJSA-N

> <BindingDB MonomerID>
50018817

> <BindingDB Ligand Name>
CHEMBL3128060

> <Target Name>
ALK tyrosine kinase receptor

> <Target Source Organism According to Curator or DataSource>
Homo sapiens

> <Ki (nM)>


> <IC50 (nM)>
 2650

> <Kd (nM)>


> <EC50 (nM)>


> <kon (M-1-s-1)>


> <koff (s-1)>


> <pH>


> <Temp C>


> <Curation/DataSource>
ChEMBL

> <Article DOI>
10.1021/jm500261q

> <BindingDB Entry DOI>
10.7270/Q2K35W68

> <PMID>
24819116

> <PubChem AID>


> <Patent Number>


> <Authors>
Johnson, TW; Richardson, PF; Bailey, S; Brooun, A; Burke, BJ; Collins, MR; Cui, JJ; Deal, JG; Deng, YL; Dinh, D; Engstrom, LD; He, M; Hoffman, J; Hoffman, RL; Huang, Q; Kania, RS; Kath, JC; Lam, H; Lam, JL; Le, PT; Lingardo, L; Liu, W; McTigue, M; Palmer, CL; Sach, NW; Smeal, T; Smith, GL; Stewart, AE; Timofeevski, S; Zhu, H; Zhu, J; Zou, HY; Edwards, MP

> <Date of publication>
6/12/2014

> <Date in BindingDB>
2/11/2015

> <Institution>
Pfizer Inc

> <Link to Ligand in BindingDB>
http://www.bindingdb.org/bind/chemsearch/marvin/MolStructure.jsp?monomerid=50018817

> <Link to Ligand-Target Pair in BindingDB>
http://www.bindingdb.org/jsp/dbsearch/PrimarySearch_ki.jsp?energyterm=kJ/mole&tag=pol&polymerid=5809&target=ALK+tyrosine+kinase+receptor&column=ki&startPg=0&Increment=50&submit=Search

> <Link to Ligand-Target Pair in BindingDB>
http://www.bindingdb.org/jsp/dbsearch/PrimarySearch_ki.jsp?energyterm=kJ/mole&tag=r21&monomerid=50018817&enzyme=ALK+tyrosine+kinase+receptor&column=ki&startPg=0&Increment=50&submit=Search

> <Ligand HET ID in PDB>


> <PDB ID(s) for Ligand-Target Complex>


> <PubChem CID of Ligand>
76318349

> <PubChem SID of Ligand>
103929870

> <ChEBI ID of Ligand>


> <ChEMBL ID of Ligand>
CHEMBL3128060

> <DrugBank ID of Ligand>


> <IUPHAR_GRAC ID of Ligand>


> <KEGG ID of Ligand>


> <ZINC ID of Ligand>
ZINC33891498

> <Number of Protein Chains in Target (bigger than 1 implies a multichain complex)>
1

> <BindingDB Target Chain Sequence>
MGAIGLLWLLPLLLSTAAVGSGMGTGQRAGSPAAGPPLQPREPLSYSRLQRKSLAVDFVVPSLFRVYARDLLLPPSSSELKAGRPEARGSLALDCAPLLRLLGPAPGVSWTAGSPAPAEARTLSRVLKGGSVRKLRRAKQLVLELGEEAILEGCVGPPGEAAVGLLQFNLSELFSWWIRQGEGRLRIRLMPEKKASEVGREGRLSAAIRASQPRLLFQIFGTGHSSLESPTNMPSPSPDYFTWNLTWIMKDSFPFLSHRSRYGLECSFDFPCELEYSPPLHDLRNQSWSWRRIPSEEASQMDLLDGPGAERSKEMPRGSFLLLNTSADSKHTILSPWMRSSSEHCTLAVSVHRHLQPSGRYIAQLLPHNEAAREILLMPTPGKHGWTVLQGRIGRPDNPFRVALEYISSGNRSLSAVDFFALKNCSEGTSPGSKMALQSSFTCWNGTVLQLGQACDFHQDCAQGEDESQMCRKLPVGFYCNFEDGFCGWTQGTLSPHTPQWQVRTLKDARFQDHQDHALLLSTTDVPASESATVTSATFPAPIKSSPCELRMSWLIRGVLRGNVSLVLVENKTGKEQGRMVWHVAAYEGLSLWQWMVLPLLDVSDRFWLQMVAWWGQGSRAIVAFDNISISLDCYLTISGEDKILQNTAPKSRNLFERNPNKELKPGENSPRQTPIFDPTVHWLFTTCGASGPHGPTQAQCNNAYQNSNLSVEVGSEGPLKGIQIWKVPATDTYSISGYGAAGGKGGKNTMMRSHGVSVLGIFNLEKDDMLYILVGQQGEDACPSTNQLIQKVCIGENNVIEEEIRVNRSVHEWAGGGGGGGGATYVFKMKDGVPVPLIIAAGGGGRAYGAKTDTFHPERLENNSSVLGLNGNSGAAGGGGGWNDNTSLLWAGKSLQEGATGGHSCPQAMKKWGWETRGGFGGGGGGCSSGGGGGGYIGGNAASNNDPEMDGEDGVSFISPLGILYTPALKVMEGHGEVNIKHYLNCSHCEVDECHMDPESHKVICFCDHGTVLAEDGVSCIVSPTPEPHLPLSLILSVVTSALVAALVLAFSGIMIVYRRKHQELQAMQMELQSPEYKLSKLRTSTIMTDYNPNYCFAGKTSSISDLKEVPRKNITLIRGLGHGAFGEVYEGQVSGMPNDPSPLQVAVKTLPEVCSEQDELDFLMEALIISKFNHQNIVRCIGVSLQSLPRFILLELMAGGDLKSFLRETRPRPSQPSSLAMLDLLHVARDIACGCQYLEENHFIHRDIAARNCLLTCPGPGRVAKIGDFGMARDIYRASYYRKGGCAMLPVKWMPPEAFMEGIFTSKTDTWSFGVLLWEIFSLGYMPYPSKSNQEVLEFVTSGGRMDPPKNCPGPVYRIMTQCWQHQPEDRPNFAIILERIEYCTQDPDVINTALPIEYGPLVEEEEKVPVRPKDPEGVPPLLVSQQAKREEERSPAAPPPLPTTSSGKAAKKPTAAEISVRVPRGPAVEGGHVNMAFSQSNPPSELHKVHGSRNKPTSLWNPTYGSWFTEKPTKKNNPIAKKEPHDRGNLGLEGSCTVPPNVATGRLPGASLLLEPSSLTANMKEVPLFRLRHFPCGNVNYGYQQQGLPLEAATAPGAGHYEDTILKSKNSMNQPGP

> <PDB ID(s) of Target Chain>
2XB7,2XBA,3AOX,5FTO,5FTQ,6E0R,6EBW,6EDL,6MX8,7JY4,7JYR,7JYS,7JYT,7LS0,7MZW,7MZY,7N00,7NX3,7NX4,8ARJ

> <UniProt (SwissProt) Recommended Name of Target Chain>
ALK tyrosine kinase receptor

> <UniProt (SwissProt) Entry Name of Target Chain>
ALK_HUMAN

> <UniProt (SwissProt) Primary ID of Target Chain>
Q9UM73

> <UniProt (SwissProt) Secondary ID(s) of Target Chain>
A6P4T4 A6P4V4 Q4ZFX9 Q53QQ6 Q53RZ4 Q59FI3 Q9Y4K6

> <UniProt (SwissProt) Alternative ID(s) of Target Chain>


> <UniProt (TrEMBL) Submitted Name of Target Chain>


> <UniProt (TrEMBL) Entry Name of Target Chain>


> <UniProt (TrEMBL) Primary ID of Target Chain>


> <UniProt (TrEMBL) Secondary ID(s) of Target Chain>


> <UniProt (TrEMBL) Alternative ID(s) of Target Chain>


$$$$
 
  Mrv0541 11221423062D          

 30 33  0  0  0  0            999 V2000
   -0.9640    1.6774    0.0000 C   0  0  0  0  0  0  0  0  0  0  0  0
   -0.9653    0.8499    0.0000 C   0  0  0  0  0  0  0  0  0  0  0  0
   -0.2523    0.4370    0.0000 C   0  0  0  0  0  0  0  0  0  0  0  0
    0.4669    0.8504    0.0000 C   0  0  0  0  0  0  0  0  0  0  0  0
    0.4637    1.6815    0.0000 C   0  0  0  0  0  0  0  0  0  0  0  0
   -0.2543    2.0903    0.0000 N   0  0  0  0  0  0  0  0  0  0  0  0
   -1.6814    0.4425    0.0000 C   0  0  0  0  0  0  0  0  0  0  0  0
   -2.4724    0.6769    0.0000 C   0  0  0  0  0  0  0  0  0  0  0  0
   -2.9398   -0.0030    0.0000 N   0  0  0  0  0  0  0  0  0  0  0  0
   -2.4376   -0.6576    0.0000 N   0  0  0  0  0  0  0  0  0  0  0  0
   -1.6599   -0.3821    0.0000 C   0  0  0  0  0  0  0  0  0  0  0  0
   -3.7651   -0.0266    0.0000 C   0  0  0  0  0  0  0  0  0  0  0  0
   -4.1948    0.6787    0.0000 C   0  0  0  0  0  0  0  0  0  0  0  0
   -5.0160    0.6593    0.0000 C   0  0  0  0  0  0  0  0  0  0  0  0
   -5.4137   -0.0639    0.0000 N   0  0  0  0  0  0  0  0  0  0  0  0
   -4.9839   -0.7692    0.0000 C   0  0  0  0  0  0  0  0  0  0  0  0
   -4.1564   -0.7513    0.0000 C   0  0  0  0  0  0  0  0  0  0  0  0
    1.1762    2.0975    0.0000 N   0  0  0  0  0  0  0  0  0  0  0  0
    1.1818    0.4386    0.0000 O   0  0  0  0  0  0  0  0  0  0  0  0
    1.1825   -0.3864    0.0000 C   0  0  1  0  0  0  0  0  0  0  0  0
    1.8973   -0.7982    0.0000 C   0  0  0  0  0  0  0  0  0  0  0  0
    0.4685   -0.7996    0.0000 C   0  0  0  0  0  0  0  0  0  0  0  0
    1.8953   -1.6235    0.0000 C   0  0  0  0  0  0  0  0  0  0  0  0
    2.6093   -2.0354    0.0000 C   0  0  0  0  0  0  0  0  0  0  0  0
    3.3244   -1.6221    0.0000 C   0  0  0  0  0  0  0  0  0  0  0  0
    3.3210   -0.7930    0.0000 C   0  0  0  0  0  0  0  0  0  0  0  0
    2.6065   -0.3849    0.0000 C   0  0  0  0  0  0  0  0  0  0  0  0
    2.6028    0.4401    0.0000 Cl  0  0  0  0  0  0  0  0  0  0  0  0
    4.0337   -0.3773    0.0000 F   0  0  0  0  0  0  0  0  0  0  0  0
    1.1806   -2.0354    0.0000 Cl  0  0  0  0  0  0  0  0  0  0  0  0
 12 17  1  0  0  0  0
 13 14  1  0  0  0  0
 14 15  1  0  0  0  0
 15 16  1  0  0  0  0
 16 17  1  0  0  0  0
  9 12  1  0  0  0  0
  4  5  2  0  0  0  0
  5 18  1  0  0  0  0
  2  3  2  0  0  0  0
  4 19  1  0  0  0  0
  8  9  1  0  0  0  0
 20 19  1  0  0  0  0
  9 10  1  0  0  0  0
 20 21  1  0  0  0  0
 10 11  2  0  0  0  0
 20 22  1  1  0  0  0
 11  7  1  0  0  0  0
 21 23  2  0  0  0  0
  2  7  1  0  0  0  0
 23 24  1  0  0  0  0
 12 13  1  0  0  0  0
 24 25  2  0  0  0  0
  5  6  1  0  0  0  0
 25 26  1  0  0  0  0
  6  1  2  0  0  0  0
 26 27  2  0  0  0  0
 27 21  1  0  0  0  0
  7  8  2  0  0  0  0
 27 28  1  0  0  0  0
  1  2  1  0  0  0  0
 26 29  1  0  0  0  0
  3  4  1  0  0  0  0
 23 30  1  0  0  0  0
M  END
> <From>
www.bindingDB.org

> <BindingDB Reactant_set_id>
50103629

> <Ligand InChI>
InChI=1S/C21H22Cl2FN5O/c1-12(19-16(22)2-3-17(24)20(19)23)30-18-8-13(9-27-21(18)25)14-10-28-29(11-14)15-4-6-26-7-5-15/h2-3,8-12,15,26H,4-7H2,1H3,(H2,25,27)/t12-/m1/s1

> <Ligand InChI Key>
KTEIFNKAUNYNJU-GFCCVEGCSA-N

> <BindingDB MonomerID>
50306682

> <BindingDB Ligand Name>
(R)-3-(1-(2,6-dichloro-3-fluorophenyl)ethoxy)-5-(1-(piperidin-4-yl)-1H-pyrazol-4-yl)pyridin-2-amine::3-(2,6-dichloro-3-fluorobenzyloxy)-5-(1-(piperidin-4-yl)-1H-pyrazol-4-yl)pyridin-2-amine::3-[(1R)-1-(2,6-dichloro-3-fluorophenyl)ethoxy]-5-(1-piperidin-4-yl-1H-pyrazol-4-yl)pyridin-2-amine::CHEMBL601719::CRIZOTINIB::PF-2341066::US10370379, Crizotinib::US10543199, Compound Crizotinib::US10780082, Compound Crizotinib::US11059827, Compound Crizotinib::US11517561, Compound Crizotinib::US9126941, PF-2341066::US9199944, Crizotinib::US9226923, Crizotinib

> <Target Name>
ALK tyrosine kinase receptor

> <Target Source Organism According to Curator or DataSource>
Homo sapiens

> <Ki (nM)>


> <IC50 (nM)>
 3039

> <Kd (nM)>


> <EC50 (nM)>


> <kon (M-1-s-1)>


> <koff (s-1)>


> <pH>


> <Temp C>


> <Curation/DataSource>
ChEMBL

> <Article DOI>
10.1021/jm500261q

> <BindingDB Entry DOI>
10.7270/Q2K35W68

> <PMID>
24819116

> <PubChem AID>


> <Patent Number>


> <Authors>
Johnson, TW; Richardson, PF; Bailey, S; Brooun, A; Burke, BJ; Collins, MR; Cui, JJ; Deal, JG; Deng, YL; Dinh, D; Engstrom, LD; He, M; Hoffman, J; Hoffman, RL; Huang, Q; Kania, RS; Kath, JC; Lam, H; Lam, JL; Le, PT; Lingardo, L; Liu, W; McTigue, M; Palmer, CL; Sach, NW; Smeal, T; Smith, GL; Stewart, AE; Timofeevski, S; Zhu, H; Zhu, J; Zou, HY; Edwards, MP

> <Date of publication>
6/12/2014

> <Date in BindingDB>
2/11/2015

> <Institution>
Pfizer Inc

> <Link to Ligand in BindingDB>
http://www.bindingdb.org/bind/chemsearch/marvin/MolStructure.jsp?monomerid=50306682

> <Link to Ligand-Target Pair in BindingDB>
http://www.bindingdb.org/jsp/dbsearch/PrimarySearch_ki.jsp?energyterm=kJ/mole&tag=pol&polymerid=5809&target=ALK+tyrosine+kinase+receptor&column=ki&startPg=0&Increment=50&submit=Search

> <Link to Ligand-Target Pair in BindingDB>
http://www.bindingdb.org/jsp/dbsearch/PrimarySearch_ki.jsp?energyterm=kJ/mole&tag=r21&monomerid=50306682&enzyme=ALK+tyrosine+kinase+receptor&column=ki&startPg=0&Increment=50&submit=Search

> <Ligand HET ID in PDB>
VGH

> <PDB ID(s) for Ligand-Target Complex>
2YFX,5AAA,5AAC,5AAB,4ANS,4ANQ,2XP2,2WGJ,3ZBF,4C9W,6IMZ

> <PubChem CID of Ligand>
11626560

> <PubChem SID of Ligand>
104161043

> <ChEBI ID of Ligand>
64310

> <ChEMBL ID of Ligand>
CHEMBL601719

> <DrugBank ID of Ligand>
DB08700

> <IUPHAR_GRAC ID of Ligand>
4903

> <KEGG ID of Ligand>


> <ZINC ID of Ligand>
ZINC35902489

> <Number of Protein Chains in Target (bigger than 1 implies a multichain complex)>
1

> <BindingDB Target Chain Sequence>
MGAIGLLWLLPLLLSTAAVGSGMGTGQRAGSPAAGPPLQPREPLSYSRLQRKSLAVDFVVPSLFRVYARDLLLPPSSSELKAGRPEARGSLALDCAPLLRLLGPAPGVSWTAGSPAPAEARTLSRVLKGGSVRKLRRAKQLVLELGEEAILEGCVGPPGEAAVGLLQFNLSELFSWWIRQGEGRLRIRLMPEKKASEVGREGRLSAAIRASQPRLLFQIFGTGHSSLESPTNMPSPSPDYFTWNLTWIMKDSFPFLSHRSRYGLECSFDFPCELEYSPPLHDLRNQSWSWRRIPSEEASQMDLLDGPGAERSKEMPRGSFLLLNTSADSKHTILSPWMRSSSEHCTLAVSVHRHLQPSGRYIAQLLPHNEAAREILLMPTPGKHGWTVLQGRIGRPDNPFRVALEYISSGNRSLSAVDFFALKNCSEGTSPGSKMALQSSFTCWNGTVLQLGQACDFHQDCAQGEDESQMCRKLPVGFYCNFEDGFCGWTQGTLSPHTPQWQVRTLKDARFQDHQDHALLLSTTDVPASESATVTSATFPAPIKSSPCELRMSWLIRGVLRGNVSLVLVENKTGKEQGRMVWHVAAYEGLSLWQWMVLPLLDVSDRFWLQMVAWWGQGSRAIVAFDNISISLDCYLTISGEDKILQNTAPKSRNLFERNPNKELKPGENSPRQTPIFDPTVHWLFTTCGASGPHGPTQAQCNNAYQNSNLSVEVGSEGPLKGIQIWKVPATDTYSISGYGAAGGKGGKNTMMRSHGVSVLGIFNLEKDDMLYILVGQQGEDACPSTNQLIQKVCIGENNVIEEEIRVNRSVHEWAGGGGGGGGATYVFKMKDGVPVPLIIAAGGGGRAYGAKTDTFHPERLENNSSVLGLNGNSGAAGGGGGWNDNTSLLWAGKSLQEGATGGHSCPQAMKKWGWETRGGFGGGGGGCSSGGGGGGYIGGNAASNNDPEMDGEDGVSFISPLGILYTPALKVMEGHGEVNIKHYLNCSHCEVDECHMDPESHKVICFCDHGTVLAEDGVSCIVSPTPEPHLPLSLILSVVTSALVAALVLAFSGIMIVYRRKHQELQAMQMELQSPEYKLSKLRTSTIMTDYNPNYCFAGKTSSISDLKEVPRKNITLIRGLGHGAFGEVYEGQVSGMPNDPSPLQVAVKTLPEVCSEQDELDFLMEALIISKFNHQNIVRCIGVSLQSLPRFILLELMAGGDLKSFLRETRPRPSQPSSLAMLDLLHVARDIACGCQYLEENHFIHRDIAARNCLLTCPGPGRVAKIGDFGMARDIYRASYYRKGGCAMLPVKWMPPEAFMEGIFTSKTDTWSFGVLLWEIFSLGYMPYPSKSNQEVLEFVTSGGRMDPPKNCPGPVYRIMTQCWQHQPEDRPNFAIILERIEYCTQDPDVINTALPIEYGPLVEEEEKVPVRPKDPEGVPPLLVSQQAKREEERSPAAPPPLPTTSSGKAAKKPTAAEISVRVPRGPAVEGGHVNMAFSQSNPPSELHKVHGSRNKPTSLWNPTYGSWFTEKPTKKNNPIAKKEPHDRGNLGLEGSCTVPPNVATGRLPGASLLLEPSSLTANMKEVPLFRLRHFPCGNVNYGYQQQGLPLEAATAPGAGHYEDTILKSKNSMNQPGP

> <PDB ID(s) of Target Chain>
2XB7,2XBA,3AOX,5FTO,5FTQ,6E0R,6EBW,6EDL,6MX8,7JY4,7JYR,7JYS,7JYT,7LS0,7MZW,7MZY,7N00,7NX3,7NX4,8ARJ

> <UniProt (SwissProt) Recommended Name of Target Chain>
ALK tyrosine kinase receptor

> <UniProt (SwissProt) Entry Name of Target Chain>
ALK_HUMAN

> <UniProt (SwissProt) Primary ID of Target Chain>
Q9UM73

> <UniProt (SwissProt) Secondary ID(s) of Target Chain>
A6P4T4 A6P4V4 Q4ZFX9 Q53QQ6 Q53RZ4 Q59FI3 Q9Y4K6

> <UniProt (SwissProt) Alternative ID(s) of Target Chain>


> <UniProt (TrEMBL) Submitted Name of Target Chain>


> <UniProt (TrEMBL) Entry Name of Target Chain>


> <UniProt (TrEMBL) Primary ID of Target Chain>


> <UniProt (TrEMBL) Secondary ID(s) of Target Chain>


> <UniProt (TrEMBL) Alternative ID(s) of Target Chain>


$$$$

  SciTegic09261414532D

 25 27  0  0  0  0            999 V2000
   13.1536   -5.7019    0.0000 C   0  0
   13.1727   -4.8838    0.0000 C   0  0
   13.8908   -4.4913    0.0000 C   0  0
   14.5897   -4.9169    0.0000 C   0  0
   14.5706   -5.7350    0.0000 C   0  0
   13.8525   -6.1275    0.0000 N   0  0
   12.4356   -6.0944    0.0000 N   0  0
   15.3077   -4.5244    0.0000 C   0  0
   12.4738   -4.4582    0.0000 O   0  0
   12.4932   -3.6399    0.0000 C   0  0  2  0  0  0
   13.2305   -3.2858    0.0000 C   0  0
   11.7905   -3.2206    0.0000 C   0  0
   11.0760   -3.6195    0.0000 C   0  0
   10.3733   -3.2003    0.0000 C   0  0
   10.3850   -2.3820    0.0000 C   0  0
   11.0995   -1.9831    0.0000 C   0  0
   11.8022   -2.4024    0.0000 C   0  0
    9.6588   -3.5992    0.0000 F   0  0
   12.5157   -2.0040    0.0000 O   0  0
   12.5275   -1.1869    0.0000 C   0  0
   16.0418   -4.8759    0.0000 N   0  0
   16.6034   -4.2807    0.0000 N   0  0
   16.2109   -3.5626    0.0000 N   0  0
   15.4068   -3.7141    0.0000 C   0  0
   16.1913   -5.6793    0.0000 C   0  0
  1  2  1  0
  2  3  2  0
  3  4  1  0
  4  5  2  0
  5  6  1  0
  1  6  2  0
  1  7  1  0
  4  8  1  0
 10 11  1  1
  9 10  1  0
 12 13  1  0
 13 14  2  0
 14 15  1  0
 15 16  2  0
 16 17  1  0
 12 17  2  0
 14 18  1  0
 10 12  1  0
  2  9  1  0
 17 19  1  0
 19 20  1  0
  8 21  1  0
 21 22  1  0
 22 23  2  0
 23 24  1  0
 24  8  2  0
 21 25  1  0
M  END
> <From>
www.bindingDB.org

> <BindingDB Reactant_set_id>
50103703

> <Ligand InChI>
InChI=1S/C17H18FN5O2/c1-10(13-7-12(18)4-5-15(13)24-3)25-16-6-11(8-20-17(16)19)14-9-21-22-23(14)2/h4-10H,1-3H3,(H2,19,20)/t10-/m1/s1

> <Ligand InChI Key>
GXUFIECYEKHMLD-SNVBAGLBSA-N

> <BindingDB MonomerID>
50018816

> <BindingDB Ligand Name>
CHEMBL3286808

> <Target Name>
ALK tyrosine kinase receptor

> <Target Source Organism According to Curator or DataSource>
Homo sapiens

> <Ki (nM)>


> <IC50 (nM)>
 3200

> <Kd (nM)>


> <EC50 (nM)>


> <kon (M-1-s-1)>


> <koff (s-1)>


> <pH>


> <Temp C>


> <Curation/DataSource>
ChEMBL

> <Article DOI>
10.1021/jm500261q

> <BindingDB Entry DOI>
10.7270/Q2K35W68

> <PMID>
24819116

> <PubChem AID>


> <Patent Number>


> <Authors>
Johnson, TW; Richardson, PF; Bailey, S; Brooun, A; Burke, BJ; Collins, MR; Cui, JJ; Deal, JG; Deng, YL; Dinh, D; Engstrom, LD; He, M; Hoffman, J; Hoffman, RL; Huang, Q; Kania, RS; Kath, JC; Lam, H; Lam, JL; Le, PT; Lingardo, L; Liu, W; McTigue, M; Palmer, CL; Sach, NW; Smeal, T; Smith, GL; Stewart, AE; Timofeevski, S; Zhu, H; Zhu, J; Zou, HY; Edwards, MP

> <Date of publication>
6/12/2014

> <Date in BindingDB>
2/11/2015

> <Institution>
Pfizer Inc

> <Link to Ligand in BindingDB>
http://www.bindingdb.org/bind/chemsearch/marvin/MolStructure.jsp?monomerid=50018816

> <Link to Ligand-Target Pair in BindingDB>
http://www.bindingdb.org/jsp/dbsearch/PrimarySearch_ki.jsp?energyterm=kJ/mole&tag=pol&polymerid=5809&target=ALK+tyrosine+kinase+receptor&column=ki&startPg=0&Increment=50&submit=Search

> <Link to Ligand-Target Pair in BindingDB>
http://www.bindingdb.org/jsp/dbsearch/PrimarySearch_ki.jsp?energyterm=kJ/mole&tag=r21&monomerid=50018816&enzyme=ALK+tyrosine+kinase+receptor&column=ki&startPg=0&Increment=50&submit=Search

> <Ligand HET ID in PDB>
3U9

> <PDB ID(s) for Ligand-Target Complex>
4CNH

> <PubChem CID of Ligand>
67467779

> <PubChem SID of Ligand>
103929869

> <ChEBI ID of Ligand>


> <ChEMBL ID of Ligand>
CHEMBL3286808

> <DrugBank ID of Ligand>


> <IUPHAR_GRAC ID of Ligand>


> <KEGG ID of Ligand>


> <ZINC ID of Ligand>
ZINC36080037

> <Number of Protein Chains in Target (bigger than 1 implies a multichain complex)>
1

> <BindingDB Target Chain Sequence>
MGAIGLLWLLPLLLSTAAVGSGMGTGQRAGSPAAGPPLQPREPLSYSRLQRKSLAVDFVVPSLFRVYARDLLLPPSSSELKAGRPEARGSLALDCAPLLRLLGPAPGVSWTAGSPAPAEARTLSRVLKGGSVRKLRRAKQLVLELGEEAILEGCVGPPGEAAVGLLQFNLSELFSWWIRQGEGRLRIRLMPEKKASEVGREGRLSAAIRASQPRLLFQIFGTGHSSLESPTNMPSPSPDYFTWNLTWIMKDSFPFLSHRSRYGLECSFDFPCELEYSPPLHDLRNQSWSWRRIPSEEASQMDLLDGPGAERSKEMPRGSFLLLNTSADSKHTILSPWMRSSSEHCTLAVSVHRHLQPSGRYIAQLLPHNEAAREILLMPTPGKHGWTVLQGRIGRPDNPFRVALEYISSGNRSLSAVDFFALKNCSEGTSPGSKMALQSSFTCWNGTVLQLGQACDFHQDCAQGEDESQMCRKLPVGFYCNFEDGFCGWTQGTLSPHTPQWQVRTLKDARFQDHQDHALLLSTTDVPASESATVTSATFPAPIKSSPCELRMSWLIRGVLRGNVSLVLVENKTGKEQGRMVWHVAAYEGLSLWQWMVLPLLDVSDRFWLQMVAWWGQGSRAIVAFDNISISLDCYLTISGEDKILQNTAPKSRNLFERNPNKELKPGENSPRQTPIFDPTVHWLFTTCGASGPHGPTQAQCNNAYQNSNLSVEVGSEGPLKGIQIWKVPATDTYSISGYGAAGGKGGKNTMMRSHGVSVLGIFNLEKDDMLYILVGQQGEDACPSTNQLIQKVCIGENNVIEEEIRVNRSVHEWAGGGGGGGGATYVFKMKDGVPVPLIIAAGGGGRAYGAKTDTFHPERLENNSSVLGLNGNSGAAGGGGGWNDNTSLLWAGKSLQEGATGGHSCPQAMKKWGWETRGGFGGGGGGCSSGGGGGGYIGGNAASNNDPEMDGEDGVSFISPLGILYTPALKVMEGHGEVNIKHYLNCSHCEVDECHMDPESHKVICFCDHGTVLAEDGVSCIVSPTPEPHLPLSLILSVVTSALVAALVLAFSGIMIVYRRKHQELQAMQMELQSPEYKLSKLRTSTIMTDYNPNYCFAGKTSSISDLKEVPRKNITLIRGLGHGAFGEVYEGQVSGMPNDPSPLQVAVKTLPEVCSEQDELDFLMEALIISKFNHQNIVRCIGVSLQSLPRFILLELMAGGDLKSFLRETRPRPSQPSSLAMLDLLHVARDIACGCQYLEENHFIHRDIAARNCLLTCPGPGRVAKIGDFGMARDIYRASYYRKGGCAMLPVKWMPPEAFMEGIFTSKTDTWSFGVLLWEIFSLGYMPYPSKSNQEVLEFVTSGGRMDPPKNCPGPVYRIMTQCWQHQPEDRPNFAIILERIEYCTQDPDVINTALPIEYGPLVEEEEKVPVRPKDPEGVPPLLVSQQAKREEERSPAAPPPLPTTSSGKAAKKPTAAEISVRVPRGPAVEGGHVNMAFSQSNPPSELHKVHGSRNKPTSLWNPTYGSWFTEKPTKKNNPIAKKEPHDRGNLGLEGSCTVPPNVATGRLPGASLLLEPSSLTANMKEVPLFRLRHFPCGNVNYGYQQQGLPLEAATAPGAGHYEDTILKSKNSMNQPGP

> <PDB ID(s) of Target Chain>
2XB7,2XBA,3AOX,5FTO,5FTQ,6E0R,6EBW,6EDL,6MX8,7JY4,7JYR,7JYS,7JYT,7LS0,7MZW,7MZY,7N00,7NX3,7NX4,8ARJ

> <UniProt (SwissProt) Recommended Name of Target Chain>
ALK tyrosine kinase receptor

> <UniProt (SwissProt) Entry Name of Target Chain>
ALK_HUMAN

> <UniProt (SwissProt) Primary ID of Target Chain>
Q9UM73

> <UniProt (SwissProt) Secondary ID(s) of Target Chain>
A6P4T4 A6P4V4 Q4ZFX9 Q53QQ6 Q53RZ4 Q59FI3 Q9Y4K6

> <UniProt (SwissProt) Alternative ID(s) of Target Chain>


> <UniProt (TrEMBL) Submitted Name of Target Chain>


> <UniProt (TrEMBL) Entry Name of Target Chain>


> <UniProt (TrEMBL) Primary ID of Target Chain>


> <UniProt (TrEMBL) Secondary ID(s) of Target Chain>


> <UniProt (TrEMBL) Alternative ID(s) of Target Chain>


$$$$

  SciTegic09261414532D

 27 30  0  0  0  0            999 V2000
    6.7331  -10.3013    0.0000 C   0  0
    5.2834  -11.0938    0.0000 C   0  0
    5.3027  -10.2678    0.0000 C   0  0
    6.0276   -9.8716    0.0000 C   0  0
    6.7139  -11.1272    0.0000 C   0  0
    5.9890  -11.5234    0.0000 N   0  0
    4.5585  -11.4899    0.0000 N   0  0
    4.5972   -9.8382    0.0000 O   0  0
    7.4556   -9.9050    0.0000 C   0  0
    8.2340  -10.1772    0.0000 N   0  0
    8.7334   -9.5209    0.0000 N   0  0
    8.2636   -8.8433    0.0000 C   0  0
    8.4715  -10.9673    0.0000 C   0  0
    3.8732  -10.2338    0.0000 C   0  0
    3.1685   -9.8048    0.0000 C   0  0
    3.1927   -8.9799    0.0000 C   0  0
    2.4888   -8.5508    0.0000 C   0  0
    1.7640   -8.9466    0.0000 C   0  0
    1.7472   -9.7757    0.0000 C   0  0
    2.4517  -10.2009    0.0000 C   0  0
    3.9177   -8.5864    0.0000 O   0  0
    4.6211   -9.0176    0.0000 C   0  0
    5.3461   -8.6242    0.0000 C   0  0
    6.0495   -9.0554    0.0000 C   0  0
    1.0247  -10.1740    0.0000 F   0  0
    6.7746   -8.6620    0.0000 C   0  0
    7.4779   -9.0932    0.0000 C   0  0
  2  3  1  0
  3  4  2  0
  4  1  1  0
  1  5  2  0
  5  6  1  0
  2  6  2  0
  2  7  1  0
  3  8  1  0
  1  9  1  0
 27  9  2  0
  9 10  1  0
 10 11  1  0
 11 12  2  0
 12 27  1  0
 10 13  1  0
  8 14  1  0
 14 15  1  0
 15 16  2  0
 16 17  1  0
 17 18  2  0
 18 19  1  0
 19 20  2  0
 20 15  1  0
 16 21  1  0
 21 22  1  0
 22 23  1  0
 23 24  1  0
 19 25  1  0
 24 26  1  0
 26 27  1  0
M  END
> <From>
www.bindingDB.org

> <BindingDB Reactant_set_id>
50103713

> <Ligand InChI>
InChI=1S/C20H21FN4O2/c1-25-19-13(11-24-25)4-2-3-7-26-17-6-5-16(21)8-15(17)12-27-18-9-14(19)10-23-20(18)22/h5-6,8-11H,2-4,7,12H2,1H3,(H2,22,23)

> <Ligand InChI Key>
XZDITQKBHNRUDE-UHFFFAOYSA-N

> <BindingDB MonomerID>
50018827

> <BindingDB Ligand Name>
CHEMBL3286817

> <Target Name>
ALK tyrosine kinase receptor

> <Target Source Organism According to Curator or DataSource>
Homo sapiens

> <Ki (nM)>


> <IC50 (nM)>
 3655

> <Kd (nM)>


> <EC50 (nM)>


> <kon (M-1-s-1)>


> <koff (s-1)>


> <pH>


> <Temp C>


> <Curation/DataSource>
ChEMBL

> <Article DOI>
10.1021/jm500261q

> <BindingDB Entry DOI>
10.7270/Q2K35W68

> <PMID>
24819116

> <PubChem AID>


> <Patent Number>


> <Authors>
Johnson, TW; Richardson, PF; Bailey, S; Brooun, A; Burke, BJ; Collins, MR; Cui, JJ; Deal, JG; Deng, YL; Dinh, D; Engstrom, LD; He, M; Hoffman, J; Hoffman, RL; Huang, Q; Kania, RS; Kath, JC; Lam, H; Lam, JL; Le, PT; Lingardo, L; Liu, W; McTigue, M; Palmer, CL; Sach, NW; Smeal, T; Smith, GL; Stewart, AE; Timofeevski, S; Zhu, H; Zhu, J; Zou, HY; Edwards, MP

> <Date of publication>
6/12/2014

> <Date in BindingDB>
2/11/2015

> <Institution>
Pfizer Inc

> <Link to Ligand in BindingDB>
http://www.bindingdb.org/bind/chemsearch/marvin/MolStructure.jsp?monomerid=50018827

> <Link to Ligand-Target Pair in BindingDB>
http://www.bindingdb.org/jsp/dbsearch/PrimarySearch_ki.jsp?energyterm=kJ/mole&tag=pol&polymerid=5809&target=ALK+tyrosine+kinase+receptor&column=ki&startPg=0&Increment=50&submit=Search

> <Link to Ligand-Target Pair in BindingDB>
http://www.bindingdb.org/jsp/dbsearch/PrimarySearch_ki.jsp?energyterm=kJ/mole&tag=r21&monomerid=50018827&enzyme=ALK+tyrosine+kinase+receptor&column=ki&startPg=0&Increment=50&submit=Search

> <Ligand HET ID in PDB>


> <PDB ID(s) for Ligand-Target Complex>


> <PubChem CID of Ligand>
71732097

> <PubChem SID of Ligand>
103929880

> <ChEBI ID of Ligand>


> <ChEMBL ID of Ligand>
CHEMBL3286817

> <DrugBank ID of Ligand>


> <IUPHAR_GRAC ID of Ligand>


> <KEGG ID of Ligand>


> <ZINC ID of Ligand>
ZINC33891520

> <Number of Protein Chains in Target (bigger than 1 implies a multichain complex)>
1

> <BindingDB Target Chain Sequence>
MGAIGLLWLLPLLLSTAAVGSGMGTGQRAGSPAAGPPLQPREPLSYSRLQRKSLAVDFVVPSLFRVYARDLLLPPSSSELKAGRPEARGSLALDCAPLLRLLGPAPGVSWTAGSPAPAEARTLSRVLKGGSVRKLRRAKQLVLELGEEAILEGCVGPPGEAAVGLLQFNLSELFSWWIRQGEGRLRIRLMPEKKASEVGREGRLSAAIRASQPRLLFQIFGTGHSSLESPTNMPSPSPDYFTWNLTWIMKDSFPFLSHRSRYGLECSFDFPCELEYSPPLHDLRNQSWSWRRIPSEEASQMDLLDGPGAERSKEMPRGSFLLLNTSADSKHTILSPWMRSSSEHCTLAVSVHRHLQPSGRYIAQLLPHNEAAREILLMPTPGKHGWTVLQGRIGRPDNPFRVALEYISSGNRSLSAVDFFALKNCSEGTSPGSKMALQSSFTCWNGTVLQLGQACDFHQDCAQGEDESQMCRKLPVGFYCNFEDGFCGWTQGTLSPHTPQWQVRTLKDARFQDHQDHALLLSTTDVPASESATVTSATFPAPIKSSPCELRMSWLIRGVLRGNVSLVLVENKTGKEQGRMVWHVAAYEGLSLWQWMVLPLLDVSDRFWLQMVAWWGQGSRAIVAFDNISISLDCYLTISGEDKILQNTAPKSRNLFERNPNKELKPGENSPRQTPIFDPTVHWLFTTCGASGPHGPTQAQCNNAYQNSNLSVEVGSEGPLKGIQIWKVPATDTYSISGYGAAGGKGGKNTMMRSHGVSVLGIFNLEKDDMLYILVGQQGEDACPSTNQLIQKVCIGENNVIEEEIRVNRSVHEWAGGGGGGGGATYVFKMKDGVPVPLIIAAGGGGRAYGAKTDTFHPERLENNSSVLGLNGNSGAAGGGGGWNDNTSLLWAGKSLQEGATGGHSCPQAMKKWGWETRGGFGGGGGGCSSGGGGGGYIGGNAASNNDPEMDGEDGVSFISPLGILYTPALKVMEGHGEVNIKHYLNCSHCEVDECHMDPESHKVICFCDHGTVLAEDGVSCIVSPTPEPHLPLSLILSVVTSALVAALVLAFSGIMIVYRRKHQELQAMQMELQSPEYKLSKLRTSTIMTDYNPNYCFAGKTSSISDLKEVPRKNITLIRGLGHGAFGEVYEGQVSGMPNDPSPLQVAVKTLPEVCSEQDELDFLMEALIISKFNHQNIVRCIGVSLQSLPRFILLELMAGGDLKSFLRETRPRPSQPSSLAMLDLLHVARDIACGCQYLEENHFIHRDIAARNCLLTCPGPGRVAKIGDFGMARDIYRASYYRKGGCAMLPVKWMPPEAFMEGIFTSKTDTWSFGVLLWEIFSLGYMPYPSKSNQEVLEFVTSGGRMDPPKNCPGPVYRIMTQCWQHQPEDRPNFAIILERIEYCTQDPDVINTALPIEYGPLVEEEEKVPVRPKDPEGVPPLLVSQQAKREEERSPAAPPPLPTTSSGKAAKKPTAAEISVRVPRGPAVEGGHVNMAFSQSNPPSELHKVHGSRNKPTSLWNPTYGSWFTEKPTKKNNPIAKKEPHDRGNLGLEGSCTVPPNVATGRLPGASLLLEPSSLTANMKEVPLFRLRHFPCGNVNYGYQQQGLPLEAATAPGAGHYEDTILKSKNSMNQPGP

> <PDB ID(s) of Target Chain>
2XB7,2XBA,3AOX,5FTO,5FTQ,6E0R,6EBW,6EDL,6MX8,7JY4,7JYR,7JYS,7JYT,7LS0,7MZW,7MZY,7N00,7NX3,7NX4,8ARJ

> <UniProt (SwissProt) Recommended Name of Target Chain>
ALK tyrosine kinase receptor

> <UniProt (SwissProt) Entry Name of Target Chain>
ALK_HUMAN

> <UniProt (SwissProt) Primary ID of Target Chain>
Q9UM73

> <UniProt (SwissProt) Secondary ID(s) of Target Chain>
A6P4T4 A6P4V4 Q4ZFX9 Q53QQ6 Q53RZ4 Q59FI3 Q9Y4K6

> <UniProt (SwissProt) Alternative ID(s) of Target Chain>


> <UniProt (TrEMBL) Submitted Name of Target Chain>


> <UniProt (TrEMBL) Entry Name of Target Chain>


> <UniProt (TrEMBL) Primary ID of Target Chain>


> <UniProt (TrEMBL) Secondary ID(s) of Target Chain>


> <UniProt (TrEMBL) Alternative ID(s) of Target Chain>


$$$$

  SciTegic09261414532D

 30 33  0  0  0  0            999 V2000
   15.5386   -5.1488    0.0000 O   0  0
   14.8183   -5.5433    0.0000 C   0  0  1  0  0  0
   14.1133   -5.1148    0.0000 C   0  0
   14.1378   -4.2915    0.0000 C   0  0
   13.4336   -3.8630    0.0000 C   0  0
   12.7123   -4.2576    0.0000 C   0  0
   12.6952   -5.0851    0.0000 C   0  0
   13.4001   -5.5098    0.0000 C   0  0
   14.8637   -3.8992    0.0000 C   0  0
   11.9721   -5.4822    0.0000 F   0  0
   18.4105   -4.3883    0.0000 C   0  0
   16.2248   -5.5766    0.0000 C   0  0
   17.6719   -5.6120    0.0000 C   0  0
   16.2249   -6.4022    0.0000 C   0  0
   16.9702   -5.1828    0.0000 C   0  0
   17.6523   -6.4363    0.0000 C   0  0
   16.9309   -6.8314    0.0000 N   0  0
   15.4994   -6.7973    0.0000 N   0  0
   18.3950   -5.2168    0.0000 C   0  0
   19.1710   -5.4856    0.0000 C   0  0
   19.6711   -4.8299    0.0000 N   0  0
   19.2011   -4.1567    0.0000 N   0  0
   14.3999   -6.2556    0.0000 C   0  0
   15.5793   -4.3397    0.0000 O   0  0
   14.8873   -3.0593    0.0000 N   0  0
   15.6266   -2.6597    0.0000 C   0  0
   14.1716   -2.6188    0.0000 C   0  0
   20.5114   -4.8476    0.0000 C   0  0
   19.4137   -6.2884    0.0000 C   0  0
   19.6562   -7.0930    0.0000 N   0  0
 12  1  1  0
  1  2  1  0
  2  3  1  0
  3  4  2  0
  4  5  1  0
  5  6  2  0
  6  7  1  0
  7  8  2  0
  8  3  1  0
  4  9  1  0
  7 10  1  0
 14 12  1  0
 12 15  2  0
 15 13  1  0
 13 16  2  0
 16 17  1  0
 14 17  2  0
 14 18  1  0
 13 19  1  0
 11 19  1  0
 19 20  2  0
 20 21  1  0
 21 22  1  0
 22 11  2  0
  2 23  1  6
  9 24  2  0
  9 25  1  0
 25 26  1  0
 25 27  1  0
 26 11  1  0
 21 28  1  0
 29 30  3  0
 20 29  1  0
M  END
> <From>
www.bindingDB.org

> <BindingDB Reactant_set_id>
50103631

> <Ligand InChI>
InChI=1S/C21H19FN6O2/c1-11-15-7-13(22)4-5-14(15)21(29)27(2)10-16-19(17(8-23)28(3)26-16)12-6-18(30-11)20(24)25-9-12/h4-7,9,11H,10H2,1-3H3,(H2,24,25)/t11-/m1/s1

> <Ligand InChI Key>
IIXWYSCJSQVBQM-LLVKDONJSA-N

> <BindingDB MonomerID>
50018830

> <BindingDB Ligand Name>
CHEMBL3286830::US10543199, Compound PF-06463922::US10780082, Compound PF-06463922::US11517561, Compound PF-06463922

> <Target Name>
Proto-oncogene tyrosine-protein kinase ROS

> <Target Source Organism According to Curator or DataSource>
Human

> <Ki (nM)>
<0.020000

> <IC50 (nM)>


> <Kd (nM)>


> <EC50 (nM)>


> <kon (M-1-s-1)>


> <koff (s-1)>


> <pH>


> <Temp C>


> <Curation/DataSource>
ChEMBL

> <Article DOI>
10.1021/jm500261q

> <BindingDB Entry DOI>
10.7270/Q2K35W68

> <PMID>
24819116

> <PubChem AID>


> <Patent Number>


> <Authors>
Johnson, TW; Richardson, PF; Bailey, S; Brooun, A; Burke, BJ; Collins, MR; Cui, JJ; Deal, JG; Deng, YL; Dinh, D; Engstrom, LD; He, M; Hoffman, J; Hoffman, RL; Huang, Q; Kania, RS; Kath, JC; Lam, H; Lam, JL; Le, PT; Lingardo, L; Liu, W; McTigue, M; Palmer, CL; Sach, NW; Smeal, T; Smith, GL; Stewart, AE; Timofeevski, S; Zhu, H; Zhu, J; Zou, HY; Edwards, MP

> <Date of publication>
6/12/2014

> <Date in BindingDB>
2/11/2015

> <Institution>
Pfizer Inc

> <Link to Ligand in BindingDB>
http://www.bindingdb.org/bind/chemsearch/marvin/MolStructure.jsp?monomerid=50018830

> <Link to Ligand-Target Pair in BindingDB>
http://www.bindingdb.org/jsp/dbsearch/PrimarySearch_ki.jsp?energyterm=kJ/mole&tag=pol&polymerid=6479&target=Proto-oncogene+tyrosine-protein+kinase+ROS&column=ki&startPg=0&Increment=50&submit=Search

> <Link to Ligand-Target Pair in BindingDB>
http://www.bindingdb.org/jsp/dbsearch/PrimarySearch_ki.jsp?energyterm=kJ/mole&tag=r21&monomerid=50018830&enzyme=Proto-oncogene+tyrosine-protein+kinase+ROS&column=ki&startPg=0&Increment=50&submit=Search

> <Ligand HET ID in PDB>
53P

> <PDB ID(s) for Ligand-Target Complex>


> <PubChem CID of Ligand>
71731823

> <PubChem SID of Ligand>
103929883

> <ChEBI ID of Ligand>


> <ChEMBL ID of Ligand>
CHEMBL3286830

> <DrugBank ID of Ligand>


> <IUPHAR_GRAC ID of Ligand>


> <KEGG ID of Ligand>


> <ZINC ID of Ligand>
ZINC33891516

> <Number of Protein Chains in Target (bigger than 1 implies a multichain complex)>
1

> <BindingDB Target Chain Sequence>
MKNIYCLIPKLVNFATLGCLWISVVQCTVLNSCLKSCVTNLGQQLDLGTPHNLSEPCIQGCHFWNSVDQKNCALKCRESCEVGCSSAEGAYEEEVLENADLPTAPFASSIGSHNMTLRWKSANFSGVKYIIQWKYAQLLGSWTYTKTVSRPSYVVKPLHPFTEYIFRVVWIFTAQLQLYSPPSPSYRTHPHGVPETAPLIRNIESSSPDTVEVSWDPPQFPGGPILGYNLRLISKNQKLDAGTQRTSFQFYSTLPNTIYRFSIAAVNEVGEGPEAESSITTSSSAVQQEEQWLFLSRKTSLRKRSLKHLVDEAHCLRLDAIYHNITGISVDVHQQIVYFSEGTLIWAKKAANMSDVSDLRIFYRGSGLISSISIDWLYQRMYFIMDELVCVCDLENCSNIEEITPPSISAPQKIVADSYNGYVFYLLRDGIYRADLPVPSGRCAEAVRIVESCTLKDFAIKPQAKRIIYFNDTAQVFMSTFLDGSASHLILPRIPFADVKSFACENNDFLVTDGKVIFQQDALSFNEFIVGCDLSHIEEFGFGNLVIFGSSSQLHPLPGRPQELSVLFGSHQALVQWKPPALAIGANVILISDIIELFELGPSAWQNWTYEVKVSTQDPPEVTHIFLNISGTMLNVPELQSAMKYKVSVRASSPKRPGPWSEPSVGTTLVPASEPPFIMAVKEDGLWSKPLNSFGPGEFLSSDIGNVSDMDWYNNSLYYSDTKGDVFVWLLNGTDISENYHLPSIAGAGALAFEWLGHFLYWAGKTYVIQRQSVLTGHTDIVTHVKLLVNDMVVDSVGGYLYWTTLYSVESTRLNGESSLVLQTQPWFSGKKVIALTLDLSDGLLYWLVQDSQCIHLYTAVLRGQSTGDTTITEFAAWSTSEISQNALMYYSGRLFWINGFRIITTQEIGQKTSVSVLEPARFNQFTIIQTSLKPLPGNFSFTPKVIPDSVQESSFRIEGNASSFQILWNGPPAVDWGVVFYSVEFSAHSKFLASEQHSLPVFTVEGLEPYALFNLSVTPYTYWGKGPKTSLSLRAPETVPSAPENPRIFILPSGKCCNKNEVVVEFRWNKPKHENGVLTKFEIFYNISNQSITNKTCEDWIAVNVTPSVMSFQLEGMSPRCFIAFQVRAFTSKGPGPYADVVKSTTSEINPFPHLITLLGNKIVFLDMDQNQVVWTFSAERVISAVCYTADNEMGYYAEGDSLFLLHLHNRSSSELFQDSLVFDITVITIDWISRHLYFALKESQNGMQVFDVDLEHKVKYPREVKIHNRNSTIISFSVYPLLSRLYWTEVSNFGYQMFYYSIISHTLHRILQPTATNQQNKRNQCSCNVTEFELSGAMAIDTSNLEKPLIYFAKAQEIWAMDLEGCQCWRVITVPAMLAGKTLVSLTVDGDLIYWIITAKDSTQIYQAKKGNGAIVSQVKALRSRHILAYSSVMQPFPDKAFLSLASDTVEPTILNATNTSLTIRLPLAKTNLTWYGITSPTPTYLVYYAEVNDRKNSSDLKYRILEFQDSIALIEDLQPFSTYMIQIAVKNYYSDPLEHLPPGKEIWGKTKNGVPEAVQLINTTVRSDTSLIISWRESHKPNGPKESVRYQLAISHLALIPETPLRQSEFPNGRLTLLVTRLSGGNIYVLKVLACHSEEMWCTESHPVTVEMFNTPEKPYSLVPENTSLQFNWKAPLNVNLIRFWVELQKWKYNEFYHVKTSCSQGPAYVCNITNLQPYTSYNVRVVVVYKTGENSTSLPESFKTKAGVPNKPGIPKLLEGSKNSIQWEKAEDNGCRITYYILEIRKSTSNNLQNQNLRWKMTFNGSCSSVCTWKSKNLKGIFQFRVVAANNLGFGEYSGISENIILVGDDFWIPETSFILTIIVGIFLVVTIPLTFVWHRRLKNQKSAKEGVTVLINEDKELAELRGLAAGVGLANACYAIHTLPTQEEIENLPAFPREKLTLRLLLGSGAFGEVYEGTAVDILGVGSGEIKVAVKTLKKGSTDQEKIEFLKEAHLMSKFNHPNILKQLGVCLLNEPQYIILELMEGGDLLTYLRKARMATFYGPLLTLVDLVDLCVDISKGCVYLERMHFIHRDLAARNCLVSVKDYTSPRIVKIGDFGLARDIYKNDYYRKRGEGLLPVRWMAPESLMDGIFTTQSDVWSFGILIWEILTLGHQPYPAHSNLDVLNYVQTGGRLEPPRNCPDDLWNLMTQCWAQEPDQRPTFHRIQDQLQLFRNFFLNSIYKSRDEANNSGVINESFEGEDGDVICLNSDDIMPVALMETKNREGLNYMVLATECGQGEEKSEGPLGSQESESCGLRKEEKEPHADKDFCQEKQVAYCPSGKPEGLNYACLTHSGYGDGSD

> <PDB ID(s) of Target Chain>
7Z5W,7Z5X

> <UniProt (SwissProt) Recommended Name of Target Chain>
Proto-oncogene tyrosine-protein kinase ROS

> <UniProt (SwissProt) Entry Name of Target Chain>
ROS1_HUMAN

> <UniProt (SwissProt) Primary ID of Target Chain>
P08922

> <UniProt (SwissProt) Secondary ID(s) of Target Chain>
Q15368 Q5TDB5

> <UniProt (SwissProt) Alternative ID(s) of Target Chain>


> <UniProt (TrEMBL) Submitted Name of Target Chain>


> <UniProt (TrEMBL) Entry Name of Target Chain>


> <UniProt (TrEMBL) Primary ID of Target Chain>


> <UniProt (TrEMBL) Secondary ID(s) of Target Chain>


> <UniProt (TrEMBL) Alternative ID(s) of Target Chain>


$$$$

  SciTegic09261414532D

 30 33  0  0  0  0            999 V2000
   14.7686   -4.6646    0.0000 O   0  0
   14.0680   -5.0483    0.0000 C   0  0  1  0  0  0
   13.3824   -4.6315    0.0000 C   0  0
   13.4062   -3.8309    0.0000 C   0  0
   12.7215   -3.4142    0.0000 C   0  0
   12.0199   -3.7979    0.0000 C   0  0
   12.0034   -4.6027    0.0000 C   0  0
   12.6888   -5.0156    0.0000 C   0  0
   14.1121   -3.4494    0.0000 C   0  0
   11.3001   -4.9889    0.0000 F   0  0
   17.5614   -3.9250    0.0000 C   0  0
   15.4358   -5.0806    0.0000 C   0  0
   16.8432   -5.1150    0.0000 C   0  0
   15.4360   -5.8835    0.0000 C   0  0
   16.1608   -4.6977    0.0000 N   0  0
   16.8240   -5.9166    0.0000 C   0  0
   16.1225   -6.3008    0.0000 N   0  0
   14.7303   -6.2677    0.0000 N   0  0
   17.5464   -4.7308    0.0000 C   0  0
   18.3009   -4.9921    0.0000 C   0  0
   18.7874   -4.3544    0.0000 N   0  0
   18.3302   -3.6997    0.0000 N   0  0
   18.5325   -5.7572    0.0000 O   0  0
   13.6611   -5.7410    0.0000 C   0  0
   14.8081   -3.8777    0.0000 O   0  0
   14.1351   -2.6325    0.0000 N   0  0
   14.8540   -2.2440    0.0000 C   0  0
   13.4392   -2.2042    0.0000 C   0  0
   18.6013   -2.9288    0.0000 C   0  0
   19.3283   -5.9432    0.0000 C   0  0
 12  1  1  0
  1  2  1  0
  2  3  1  0
  3  4  2  0
  4  5  1  0
  5  6  2  0
  6  7  1  0
  7  8  2  0
  8  3  1  0
  4  9  1  0
  7 10  1  0
 14 12  1  0
 12 15  2  0
 15 13  1  0
 13 16  2  0
 16 17  1  0
 14 17  2  0
 14 18  1  0
 13 19  1  0
 11 19  2  0
 19 20  1  0
 20 21  2  0
 21 22  1  0
 22 11  1  0
 20 23  1  0
  2 24  1  6
  9 25  2  0
  9 26  1  0
 26 27  1  0
 26 28  1  0
 27 11  1  0
 22 29  1  0
 23 30  1  0
M  END
> <From>
www.bindingDB.org

> <BindingDB Reactant_set_id>
50103665

> <Ligand InChI>
InChI=1S/C20H21FN6O3/c1-10-13-7-11(21)5-6-12(13)20(28)26(2)9-15-16(18(29-4)25-27(15)3)14-8-23-17(22)19(24-14)30-10/h5-8,10H,9H2,1-4H3,(H2,22,23)/t10-/m1/s1

> <Ligand InChI Key>
ONGPJRHQODCQNJ-SNVBAGLBSA-N

> <BindingDB MonomerID>
50018836

> <BindingDB Ligand Name>
CHEMBL3286826

> <Target Name>
ALK tyrosine kinase receptor

> <Target Source Organism According to Curator or DataSource>
Homo sapiens

> <Ki (nM)>
<0.020000

> <IC50 (nM)>


> <Kd (nM)>


> <EC50 (nM)>


> <kon (M-1-s-1)>


> <koff (s-1)>


> <pH>


> <Temp C>


> <Curation/DataSource>
ChEMBL

> <Article DOI>
10.1021/jm500261q

> <BindingDB Entry DOI>
10.7270/Q2K35W68

> <PMID>
24819116

> <PubChem AID>


> <Patent Number>


> <Authors>
Johnson, TW; Richardson, PF; Bailey, S; Brooun, A; Burke, BJ; Collins, MR; Cui, JJ; Deal, JG; Deng, YL; Dinh, D; Engstrom, LD; He, M; Hoffman, J; Hoffman, RL; Huang, Q; Kania, RS; Kath, JC; Lam, H; Lam, JL; Le, PT; Lingardo, L; Liu, W; McTigue, M; Palmer, CL; Sach, NW; Smeal, T; Smith, GL; Stewart, AE; Timofeevski, S; Zhu, H; Zhu, J; Zou, HY; Edwards, MP

> <Date of publication>
6/12/2014

> <Date in BindingDB>
2/11/2015

> <Institution>
Pfizer Inc

> <Link to Ligand in BindingDB>
http://www.bindingdb.org/bind/chemsearch/marvin/MolStructure.jsp?monomerid=50018836

> <Link to Ligand-Target Pair in BindingDB>
http://www.bindingdb.org/jsp/dbsearch/PrimarySearch_ki.jsp?energyterm=kJ/mole&tag=pol&polymerid=5809&target=ALK+tyrosine+kinase+receptor&column=ki&startPg=0&Increment=50&submit=Search

> <Link to Ligand-Target Pair in BindingDB>
http://www.bindingdb.org/jsp/dbsearch/PrimarySearch_ki.jsp?energyterm=kJ/mole&tag=r21&monomerid=50018836&enzyme=ALK+tyrosine+kinase+receptor&column=ki&startPg=0&Increment=50&submit=Search

> <Ligand HET ID in PDB>


> <PDB ID(s) for Ligand-Target Complex>


> <PubChem CID of Ligand>
90644201

> <PubChem SID of Ligand>
103929889

> <ChEBI ID of Ligand>


> <ChEMBL ID of Ligand>
CHEMBL3286826

> <DrugBank ID of Ligand>


> <IUPHAR_GRAC ID of Ligand>


> <KEGG ID of Ligand>


> <ZINC ID of Ligand>
ZINC33891505

> <Number of Protein Chains in Target (bigger than 1 implies a multichain complex)>
1

> <BindingDB Target Chain Sequence>
MGAIGLLWLLPLLLSTAAVGSGMGTGQRAGSPAAGPPLQPREPLSYSRLQRKSLAVDFVVPSLFRVYARDLLLPPSSSELKAGRPEARGSLALDCAPLLRLLGPAPGVSWTAGSPAPAEARTLSRVLKGGSVRKLRRAKQLVLELGEEAILEGCVGPPGEAAVGLLQFNLSELFSWWIRQGEGRLRIRLMPEKKASEVGREGRLSAAIRASQPRLLFQIFGTGHSSLESPTNMPSPSPDYFTWNLTWIMKDSFPFLSHRSRYGLECSFDFPCELEYSPPLHDLRNQSWSWRRIPSEEASQMDLLDGPGAERSKEMPRGSFLLLNTSADSKHTILSPWMRSSSEHCTLAVSVHRHLQPSGRYIAQLLPHNEAAREILLMPTPGKHGWTVLQGRIGRPDNPFRVALEYISSGNRSLSAVDFFALKNCSEGTSPGSKMALQSSFTCWNGTVLQLGQACDFHQDCAQGEDESQMCRKLPVGFYCNFEDGFCGWTQGTLSPHTPQWQVRTLKDARFQDHQDHALLLSTTDVPASESATVTSATFPAPIKSSPCELRMSWLIRGVLRGNVSLVLVENKTGKEQGRMVWHVAAYEGLSLWQWMVLPLLDVSDRFWLQMVAWWGQGSRAIVAFDNISISLDCYLTISGEDKILQNTAPKSRNLFERNPNKELKPGENSPRQTPIFDPTVHWLFTTCGASGPHGPTQAQCNNAYQNSNLSVEVGSEGPLKGIQIWKVPATDTYSISGYGAAGGKGGKNTMMRSHGVSVLGIFNLEKDDMLYILVGQQGEDACPSTNQLIQKVCIGENNVIEEEIRVNRSVHEWAGGGGGGGGATYVFKMKDGVPVPLIIAAGGGGRAYGAKTDTFHPERLENNSSVLGLNGNSGAAGGGGGWNDNTSLLWAGKSLQEGATGGHSCPQAMKKWGWETRGGFGGGGGGCSSGGGGGGYIGGNAASNNDPEMDGEDGVSFISPLGILYTPALKVMEGHGEVNIKHYLNCSHCEVDECHMDPESHKVICFCDHGTVLAEDGVSCIVSPTPEPHLPLSLILSVVTSALVAALVLAFSGIMIVYRRKHQELQAMQMELQSPEYKLSKLRTSTIMTDYNPNYCFAGKTSSISDLKEVPRKNITLIRGLGHGAFGEVYEGQVSGMPNDPSPLQVAVKTLPEVCSEQDELDFLMEALIISKFNHQNIVRCIGVSLQSLPRFILLELMAGGDLKSFLRETRPRPSQPSSLAMLDLLHVARDIACGCQYLEENHFIHRDIAARNCLLTCPGPGRVAKIGDFGMARDIYRASYYRKGGCAMLPVKWMPPEAFMEGIFTSKTDTWSFGVLLWEIFSLGYMPYPSKSNQEVLEFVTSGGRMDPPKNCPGPVYRIMTQCWQHQPEDRPNFAIILERIEYCTQDPDVINTALPIEYGPLVEEEEKVPVRPKDPEGVPPLLVSQQAKREEERSPAAPPPLPTTSSGKAAKKPTAAEISVRVPRGPAVEGGHVNMAFSQSNPPSELHKVHGSRNKPTSLWNPTYGSWFTEKPTKKNNPIAKKEPHDRGNLGLEGSCTVPPNVATGRLPGASLLLEPSSLTANMKEVPLFRLRHFPCGNVNYGYQQQGLPLEAATAPGAGHYEDTILKSKNSMNQPGP

> <PDB ID(s) of Target Chain>
2XB7,2XBA,3AOX,5FTO,5FTQ,6E0R,6EBW,6EDL,6MX8,7JY4,7JYR,7JYS,7JYT,7LS0,7MZW,7MZY,7N00,7NX3,7NX4,8ARJ

> <UniProt (SwissProt) Recommended Name of Target Chain>
ALK tyrosine kinase receptor

> <UniProt (SwissProt) Entry Name of Target Chain>
ALK_HUMAN

> <UniProt (SwissProt) Primary ID of Target Chain>
Q9UM73

> <UniProt (SwissProt) Secondary ID(s) of Target Chain>
A6P4T4 A6P4V4 Q4ZFX9 Q53QQ6 Q53RZ4 Q59FI3 Q9Y4K6

> <UniProt (SwissProt) Alternative ID(s) of Target Chain>


> <UniProt (TrEMBL) Submitted Name of Target Chain>


> <UniProt (TrEMBL) Entry Name of Target Chain>


> <UniProt (TrEMBL) Primary ID of Target Chain>


> <UniProt (TrEMBL) Secondary ID(s) of Target Chain>


> <UniProt (TrEMBL) Alternative ID(s) of Target Chain>


$$$$

  SciTegic09261414532D

 30 33  0  0  0  0            999 V2000
   15.5386   -5.1488    0.0000 O   0  0
   14.8183   -5.5433    0.0000 C   0  0  1  0  0  0
   14.1133   -5.1148    0.0000 C   0  0
   14.1378   -4.2915    0.0000 C   0  0
   13.4336   -3.8630    0.0000 C   0  0
   12.7123   -4.2576    0.0000 C   0  0
   12.6952   -5.0851    0.0000 C   0  0
   13.4001   -5.5098    0.0000 C   0  0
   14.8637   -3.8992    0.0000 C   0  0
   11.9721   -5.4822    0.0000 F   0  0
   18.4105   -4.3883    0.0000 C   0  0
   16.2248   -5.5766    0.0000 C   0  0
   17.6719   -5.6120    0.0000 C   0  0
   16.2249   -6.4022    0.0000 C   0  0
   16.9702   -5.1828    0.0000 C   0  0
   17.6523   -6.4363    0.0000 C   0  0
   16.9309   -6.8314    0.0000 N   0  0
   15.4994   -6.7973    0.0000 N   0  0
   18.3950   -5.2168    0.0000 C   0  0
   19.1710   -5.4856    0.0000 C   0  0
   19.6711   -4.8299    0.0000 N   0  0
   19.2011   -4.1567    0.0000 N   0  0
   14.3999   -6.2556    0.0000 C   0  0
   15.5793   -4.3397    0.0000 O   0  0
   14.8873   -3.0593    0.0000 N   0  0
   15.6266   -2.6597    0.0000 C   0  0
   14.1716   -2.6188    0.0000 C   0  0
   20.5114   -4.8476    0.0000 C   0  0
   19.4137   -6.2884    0.0000 C   0  0
   19.6562   -7.0930    0.0000 N   0  0
 12  1  1  0
  1  2  1  0
  2  3  1  0
  3  4  2  0
  4  5  1  0
  5  6  2  0
  6  7  1  0
  7  8  2  0
  8  3  1  0
  4  9  1  0
  7 10  1  0
 14 12  1  0
 12 15  2  0
 15 13  1  0
 13 16  2  0
 16 17  1  0
 14 17  2  0
 14 18  1  0
 13 19  1  0
 11 19  1  0
 19 20  2  0
 20 21  1  0
 21 22  1  0
 22 11  2  0
  2 23  1  6
  9 24  2  0
  9 25  1  0
 25 26  1  0
 25 27  1  0
 26 11  1  0
 21 28  1  0
 29 30  3  0
 20 29  1  0
M  END
> <From>
www.bindingDB.org

> <BindingDB Reactant_set_id>
50103545

> <Ligand InChI>
InChI=1S/C21H19FN6O2/c1-11-15-7-13(22)4-5-14(15)21(29)27(2)10-16-19(17(8-23)28(3)26-16)12-6-18(30-11)20(24)25-9-12/h4-7,9,11H,10H2,1-3H3,(H2,24,25)/t11-/m1/s1

> <Ligand InChI Key>
IIXWYSCJSQVBQM-LLVKDONJSA-N

> <BindingDB MonomerID>
50018830

> <BindingDB Ligand Name>
CHEMBL3286830::US10543199, Compound PF-06463922::US10780082, Compound PF-06463922::US11517561, Compound PF-06463922

> <Target Name>
ALK tyrosine kinase receptor

> <Target Source Organism According to Curator or DataSource>
Homo sapiens

> <Ki (nM)>
<0.070000

> <IC50 (nM)>


> <Kd (nM)>


> <EC50 (nM)>


> <kon (M-1-s-1)>


> <koff (s-1)>


> <pH>


> <Temp C>


> <Curation/DataSource>
ChEMBL

> <Article DOI>
10.1021/jm500261q

> <BindingDB Entry DOI>
10.7270/Q2K35W68

> <PMID>
24819116

> <PubChem AID>


> <Patent Number>


> <Authors>
Johnson, TW; Richardson, PF; Bailey, S; Brooun, A; Burke, BJ; Collins, MR; Cui, JJ; Deal, JG; Deng, YL; Dinh, D; Engstrom, LD; He, M; Hoffman, J; Hoffman, RL; Huang, Q; Kania, RS; Kath, JC; Lam, H; Lam, JL; Le, PT; Lingardo, L; Liu, W; McTigue, M; Palmer, CL; Sach, NW; Smeal, T; Smith, GL; Stewart, AE; Timofeevski, S; Zhu, H; Zhu, J; Zou, HY; Edwards, MP

> <Date of publication>
6/12/2014

> <Date in BindingDB>
2/11/2015

> <Institution>
Pfizer Inc

> <Link to Ligand in BindingDB>
http://www.bindingdb.org/bind/chemsearch/marvin/MolStructure.jsp?monomerid=50018830

> <Link to Ligand-Target Pair in BindingDB>
http://www.bindingdb.org/jsp/dbsearch/PrimarySearch_ki.jsp?energyterm=kJ/mole&tag=pol&polymerid=5809&target=ALK+tyrosine+kinase+receptor&column=ki&startPg=0&Increment=50&submit=Search

> <Link to Ligand-Target Pair in BindingDB>
http://www.bindingdb.org/jsp/dbsearch/PrimarySearch_ki.jsp?energyterm=kJ/mole&tag=r21&monomerid=50018830&enzyme=ALK+tyrosine+kinase+receptor&column=ki&startPg=0&Increment=50&submit=Search

> <Ligand HET ID in PDB>
53P

> <PDB ID(s) for Ligand-Target Complex>


> <PubChem CID of Ligand>
71731823

> <PubChem SID of Ligand>
103929883

> <ChEBI ID of Ligand>


> <ChEMBL ID of Ligand>
CHEMBL3286830

> <DrugBank ID of Ligand>


> <IUPHAR_GRAC ID of Ligand>


> <KEGG ID of Ligand>


> <ZINC ID of Ligand>
ZINC33891516

> <Number of Protein Chains in Target (bigger than 1 implies a multichain complex)>
1

> <BindingDB Target Chain Sequence>
MGAIGLLWLLPLLLSTAAVGSGMGTGQRAGSPAAGPPLQPREPLSYSRLQRKSLAVDFVVPSLFRVYARDLLLPPSSSELKAGRPEARGSLALDCAPLLRLLGPAPGVSWTAGSPAPAEARTLSRVLKGGSVRKLRRAKQLVLELGEEAILEGCVGPPGEAAVGLLQFNLSELFSWWIRQGEGRLRIRLMPEKKASEVGREGRLSAAIRASQPRLLFQIFGTGHSSLESPTNMPSPSPDYFTWNLTWIMKDSFPFLSHRSRYGLECSFDFPCELEYSPPLHDLRNQSWSWRRIPSEEASQMDLLDGPGAERSKEMPRGSFLLLNTSADSKHTILSPWMRSSSEHCTLAVSVHRHLQPSGRYIAQLLPHNEAAREILLMPTPGKHGWTVLQGRIGRPDNPFRVALEYISSGNRSLSAVDFFALKNCSEGTSPGSKMALQSSFTCWNGTVLQLGQACDFHQDCAQGEDESQMCRKLPVGFYCNFEDGFCGWTQGTLSPHTPQWQVRTLKDARFQDHQDHALLLSTTDVPASESATVTSATFPAPIKSSPCELRMSWLIRGVLRGNVSLVLVENKTGKEQGRMVWHVAAYEGLSLWQWMVLPLLDVSDRFWLQMVAWWGQGSRAIVAFDNISISLDCYLTISGEDKILQNTAPKSRNLFERNPNKELKPGENSPRQTPIFDPTVHWLFTTCGASGPHGPTQAQCNNAYQNSNLSVEVGSEGPLKGIQIWKVPATDTYSISGYGAAGGKGGKNTMMRSHGVSVLGIFNLEKDDMLYILVGQQGEDACPSTNQLIQKVCIGENNVIEEEIRVNRSVHEWAGGGGGGGGATYVFKMKDGVPVPLIIAAGGGGRAYGAKTDTFHPERLENNSSVLGLNGNSGAAGGGGGWNDNTSLLWAGKSLQEGATGGHSCPQAMKKWGWETRGGFGGGGGGCSSGGGGGGYIGGNAASNNDPEMDGEDGVSFISPLGILYTPALKVMEGHGEVNIKHYLNCSHCEVDECHMDPESHKVICFCDHGTVLAEDGVSCIVSPTPEPHLPLSLILSVVTSALVAALVLAFSGIMIVYRRKHQELQAMQMELQSPEYKLSKLRTSTIMTDYNPNYCFAGKTSSISDLKEVPRKNITLIRGLGHGAFGEVYEGQVSGMPNDPSPLQVAVKTLPEVCSEQDELDFLMEALIISKFNHQNIVRCIGVSLQSLPRFILLELMAGGDLKSFLRETRPRPSQPSSLAMLDLLHVARDIACGCQYLEENHFIHRDIAARNCLLTCPGPGRVAKIGDFGMARDIYRASYYRKGGCAMLPVKWMPPEAFMEGIFTSKTDTWSFGVLLWEIFSLGYMPYPSKSNQEVLEFVTSGGRMDPPKNCPGPVYRIMTQCWQHQPEDRPNFAIILERIEYCTQDPDVINTALPIEYGPLVEEEEKVPVRPKDPEGVPPLLVSQQAKREEERSPAAPPPLPTTSSGKAAKKPTAAEISVRVPRGPAVEGGHVNMAFSQSNPPSELHKVHGSRNKPTSLWNPTYGSWFTEKPTKKNNPIAKKEPHDRGNLGLEGSCTVPPNVATGRLPGASLLLEPSSLTANMKEVPLFRLRHFPCGNVNYGYQQQGLPLEAATAPGAGHYEDTILKSKNSMNQPGP

> <PDB ID(s) of Target Chain>
2XB7,2XBA,3AOX,5FTO,5FTQ,6E0R,6EBW,6EDL,6MX8,7JY4,7JYR,7JYS,7JYT,7LS0,7MZW,7MZY,7N00,7NX3,7NX4,8ARJ

> <UniProt (SwissProt) Recommended Name of Target Chain>
ALK tyrosine kinase receptor

> <UniProt (SwissProt) Entry Name of Target Chain>
ALK_HUMAN

> <UniProt (SwissProt) Primary ID of Target Chain>
Q9UM73

> <UniProt (SwissProt) Secondary ID(s) of Target Chain>
A6P4T4 A6P4V4 Q4ZFX9 Q53QQ6 Q53RZ4 Q59FI3 Q9Y4K6

> <UniProt (SwissProt) Alternative ID(s) of Target Chain>


> <UniProt (TrEMBL) Submitted Name of Target Chain>


> <UniProt (TrEMBL) Entry Name of Target Chain>


> <UniProt (TrEMBL) Primary ID of Target Chain>


> <UniProt (TrEMBL) Secondary ID(s) of Target Chain>


> <UniProt (TrEMBL) Alternative ID(s) of Target Chain>


$$$$

  SciTegic09261414532D

 32 35  0  0  0  0            999 V2000
    9.5141   -4.2540    0.0000 S   0  0
    9.0957   -4.9560    0.0000 O   0  0
    9.9128   -4.9674    0.0000 O   0  0
    4.6404   -3.7483    0.0000 O   0  0
    3.9398   -4.1320    0.0000 C   0  0  1  0  0  0
    3.2542   -3.7153    0.0000 C   0  0
    3.2780   -2.9146    0.0000 C   0  0
    2.5933   -2.4979    0.0000 C   0  0
    1.8917   -2.8817    0.0000 C   0  0
    1.8752   -3.6864    0.0000 C   0  0
    2.5606   -4.0994    0.0000 C   0  0
    3.9839   -2.5331    0.0000 C   0  0
    1.1719   -4.0726    0.0000 F   0  0
    5.3076   -4.1644    0.0000 C   0  0
    6.7149   -4.1988    0.0000 C   0  0
    5.3078   -4.9672    0.0000 C   0  0
    6.0325   -3.7814    0.0000 C   0  0
    6.6958   -5.0003    0.0000 C   0  0
    5.9943   -5.3846    0.0000 N   0  0
    4.6021   -5.3515    0.0000 N   0  0
    4.6798   -2.9615    0.0000 O   0  0
    4.0069   -1.7163    0.0000 N   0  0
    4.7258   -1.3277    0.0000 C   0  0
    3.3110   -1.2879    0.0000 C   0  0
    3.5247   -4.8371    0.0000 C   0  0
    7.4317   -3.0087    0.0000 C   0  0
    7.4181   -3.8145    0.0000 C   0  0
    8.1081   -4.2274    0.0000 C   0  0
    8.8122   -3.8356    0.0000 C   0  0
    8.8219   -3.0267    0.0000 C   0  0
    8.1313   -2.6174    0.0000 C   0  0
   10.2274   -3.8553    0.0000 C   0  0
  2  1  2  0
  1  3  2  0
 14  4  1  0
  4  5  1  0
  5  6  1  0
  6  7  2  0
  7  8  1  0
  8  9  2  0
  9 10  1  0
 10 11  2  0
 11  6  1  0
  7 12  1  0
 10 13  1  0
 16 14  1  0
 14 17  2  0
 17 15  1  0
 15 18  2  0
 18 19  1  0
 16 19  2  0
 16 20  1  0
 15 27  1  0
 12 21  2  0
 12 22  1  0
 22 23  1  0
 22 24  1  0
 23 26  1  0
  5 25  1  6
 26 27  2  0
 27 28  1  0
 28 29  2  0
 29 30  1  0
 30 31  2  0
 31 26  1  0
 29  1  1  0
  1 32  1  0
M  END
> <From>
www.bindingDB.org

> <BindingDB Reactant_set_id>
50103560

> <Ligand InChI>
InChI=1S/C23H22FN3O4S/c1-13-19-9-16(24)5-7-18(19)23(28)27(2)12-14-4-6-17(32(3,29)30)10-20(14)15-8-21(31-13)22(25)26-11-15/h4-11,13H,12H2,1-3H3,(H2,25,26)/t13-/m1/s1

> <Ligand InChI Key>
OMIYERABHRFNAV-CYBMUJFWSA-N

> <BindingDB MonomerID>
50018837

> <BindingDB Ligand Name>
CHEMBL3286827

> <Target Name>
ALK tyrosine kinase receptor

> <Target Source Organism According to Curator or DataSource>
Homo sapiens

> <Ki (nM)>
<0.070000

> <IC50 (nM)>


> <Kd (nM)>


> <EC50 (nM)>


> <kon (M-1-s-1)>


> <koff (s-1)>


> <pH>


> <Temp C>


> <Curation/DataSource>
ChEMBL

> <Article DOI>
10.1021/jm500261q

> <BindingDB Entry DOI>
10.7270/Q2K35W68

> <PMID>
24819116

> <PubChem AID>


> <Patent Number>


> <Authors>
Johnson, TW; Richardson, PF; Bailey, S; Brooun, A; Burke, BJ; Collins, MR; Cui, JJ; Deal, JG; Deng, YL; Dinh, D; Engstrom, LD; He, M; Hoffman, J; Hoffman, RL; Huang, Q; Kania, RS; Kath, JC; Lam, H; Lam, JL; Le, PT; Lingardo, L; Liu, W; McTigue, M; Palmer, CL; Sach, NW; Smeal, T; Smith, GL; Stewart, AE; Timofeevski, S; Zhu, H; Zhu, J; Zou, HY; Edwards, MP

> <Date of publication>
6/12/2014

> <Date in BindingDB>
2/11/2015

> <Institution>
Pfizer Inc

> <Link to Ligand in BindingDB>
http://www.bindingdb.org/bind/chemsearch/marvin/MolStructure.jsp?monomerid=50018837

> <Link to Ligand-Target Pair in BindingDB>
http://www.bindingdb.org/jsp/dbsearch/PrimarySearch_ki.jsp?energyterm=kJ/mole&tag=pol&polymerid=5809&target=ALK+tyrosine+kinase+receptor&column=ki&startPg=0&Increment=50&submit=Search

> <Link to Ligand-Target Pair in BindingDB>
http://www.bindingdb.org/jsp/dbsearch/PrimarySearch_ki.jsp?energyterm=kJ/mole&tag=r21&monomerid=50018837&enzyme=ALK+tyrosine+kinase+receptor&column=ki&startPg=0&Increment=50&submit=Search

> <Ligand HET ID in PDB>


> <PDB ID(s) for Ligand-Target Complex>


> <PubChem CID of Ligand>
89808124

> <PubChem SID of Ligand>
103929890

> <ChEBI ID of Ligand>


> <ChEMBL ID of Ligand>
CHEMBL3286827

> <DrugBank ID of Ligand>


> <IUPHAR_GRAC ID of Ligand>


> <KEGG ID of Ligand>


> <ZINC ID of Ligand>
ZINC33891497

> <Number of Protein Chains in Target (bigger than 1 implies a multichain complex)>
1

> <BindingDB Target Chain Sequence>
MGAIGLLWLLPLLLSTAAVGSGMGTGQRAGSPAAGPPLQPREPLSYSRLQRKSLAVDFVVPSLFRVYARDLLLPPSSSELKAGRPEARGSLALDCAPLLRLLGPAPGVSWTAGSPAPAEARTLSRVLKGGSVRKLRRAKQLVLELGEEAILEGCVGPPGEAAVGLLQFNLSELFSWWIRQGEGRLRIRLMPEKKASEVGREGRLSAAIRASQPRLLFQIFGTGHSSLESPTNMPSPSPDYFTWNLTWIMKDSFPFLSHRSRYGLECSFDFPCELEYSPPLHDLRNQSWSWRRIPSEEASQMDLLDGPGAERSKEMPRGSFLLLNTSADSKHTILSPWMRSSSEHCTLAVSVHRHLQPSGRYIAQLLPHNEAAREILLMPTPGKHGWTVLQGRIGRPDNPFRVALEYISSGNRSLSAVDFFALKNCSEGTSPGSKMALQSSFTCWNGTVLQLGQACDFHQDCAQGEDESQMCRKLPVGFYCNFEDGFCGWTQGTLSPHTPQWQVRTLKDARFQDHQDHALLLSTTDVPASESATVTSATFPAPIKSSPCELRMSWLIRGVLRGNVSLVLVENKTGKEQGRMVWHVAAYEGLSLWQWMVLPLLDVSDRFWLQMVAWWGQGSRAIVAFDNISISLDCYLTISGEDKILQNTAPKSRNLFERNPNKELKPGENSPRQTPIFDPTVHWLFTTCGASGPHGPTQAQCNNAYQNSNLSVEVGSEGPLKGIQIWKVPATDTYSISGYGAAGGKGGKNTMMRSHGVSVLGIFNLEKDDMLYILVGQQGEDACPSTNQLIQKVCIGENNVIEEEIRVNRSVHEWAGGGGGGGGATYVFKMKDGVPVPLIIAAGGGGRAYGAKTDTFHPERLENNSSVLGLNGNSGAAGGGGGWNDNTSLLWAGKSLQEGATGGHSCPQAMKKWGWETRGGFGGGGGGCSSGGGGGGYIGGNAASNNDPEMDGEDGVSFISPLGILYTPALKVMEGHGEVNIKHYLNCSHCEVDECHMDPESHKVICFCDHGTVLAEDGVSCIVSPTPEPHLPLSLILSVVTSALVAALVLAFSGIMIVYRRKHQELQAMQMELQSPEYKLSKLRTSTIMTDYNPNYCFAGKTSSISDLKEVPRKNITLIRGLGHGAFGEVYEGQVSGMPNDPSPLQVAVKTLPEVCSEQDELDFLMEALIISKFNHQNIVRCIGVSLQSLPRFILLELMAGGDLKSFLRETRPRPSQPSSLAMLDLLHVARDIACGCQYLEENHFIHRDIAARNCLLTCPGPGRVAKIGDFGMARDIYRASYYRKGGCAMLPVKWMPPEAFMEGIFTSKTDTWSFGVLLWEIFSLGYMPYPSKSNQEVLEFVTSGGRMDPPKNCPGPVYRIMTQCWQHQPEDRPNFAIILERIEYCTQDPDVINTALPIEYGPLVEEEEKVPVRPKDPEGVPPLLVSQQAKREEERSPAAPPPLPTTSSGKAAKKPTAAEISVRVPRGPAVEGGHVNMAFSQSNPPSELHKVHGSRNKPTSLWNPTYGSWFTEKPTKKNNPIAKKEPHDRGNLGLEGSCTVPPNVATGRLPGASLLLEPSSLTANMKEVPLFRLRHFPCGNVNYGYQQQGLPLEAATAPGAGHYEDTILKSKNSMNQPGP

> <PDB ID(s) of Target Chain>
2XB7,2XBA,3AOX,5FTO,5FTQ,6E0R,6EBW,6EDL,6MX8,7JY4,7JYR,7JYS,7JYT,7LS0,7MZW,7MZY,7N00,7NX3,7NX4,8ARJ

> <UniProt (SwissProt) Recommended Name of Target Chain>
ALK tyrosine kinase receptor

> <UniProt (SwissProt) Entry Name of Target Chain>
ALK_HUMAN

> <UniProt (SwissProt) Primary ID of Target Chain>
Q9UM73

> <UniProt (SwissProt) Secondary ID(s) of Target Chain>
A6P4T4 A6P4V4 Q4ZFX9 Q53QQ6 Q53RZ4 Q59FI3 Q9Y4K6

> <UniProt (SwissProt) Alternative ID(s) of Target Chain>


> <UniProt (TrEMBL) Submitted Name of Target Chain>


> <UniProt (TrEMBL) Entry Name of Target Chain>


> <UniProt (TrEMBL) Primary ID of Target Chain>


> <UniProt (TrEMBL) Secondary ID(s) of Target Chain>


> <UniProt (TrEMBL) Alternative ID(s) of Target Chain>


$$$$

  SciTegic09261414532D

 30 33  0  0  0  0            999 V2000
   14.7686   -4.6646    0.0000 O   0  0
   14.0680   -5.0483    0.0000 C   0  0  1  0  0  0
   13.3824   -4.6315    0.0000 C   0  0
   13.4062   -3.8309    0.0000 C   0  0
   12.7215   -3.4142    0.0000 C   0  0
   12.0199   -3.7979    0.0000 C   0  0
   12.0034   -4.6027    0.0000 C   0  0
   12.6888   -5.0156    0.0000 C   0  0
   14.1121   -3.4494    0.0000 C   0  0
   11.3001   -4.9889    0.0000 F   0  0
   17.5614   -3.9250    0.0000 C   0  0
   15.4358   -5.0806    0.0000 C   0  0
   16.8432   -5.1150    0.0000 C   0  0
   15.4360   -5.8835    0.0000 C   0  0
   16.1608   -4.6977    0.0000 N   0  0
   16.8240   -5.9166    0.0000 C   0  0
   16.1225   -6.3008    0.0000 N   0  0
   14.7303   -6.2677    0.0000 N   0  0
   17.5464   -4.7308    0.0000 C   0  0
   18.3009   -4.9921    0.0000 C   0  0
   18.7874   -4.3544    0.0000 N   0  0
   18.3302   -3.6997    0.0000 N   0  0
   18.5325   -5.7572    0.0000 O   0  0
   13.6611   -5.7410    0.0000 C   0  0
   14.8081   -3.8777    0.0000 O   0  0
   14.1351   -2.6325    0.0000 N   0  0
   14.8540   -2.2440    0.0000 C   0  0
   13.4392   -2.2042    0.0000 C   0  0
   18.6013   -2.9288    0.0000 C   0  0
   19.3283   -5.9432    0.0000 C   0  0
 12  1  1  0
  1  2  1  0
  2  3  1  0
  3  4  2  0
  4  5  1  0
  5  6  2  0
  6  7  1  0
  7  8  2  0
  8  3  1  0
  4  9  1  0
  7 10  1  0
 14 12  1  0
 12 15  2  0
 15 13  1  0
 13 16  2  0
 16 17  1  0
 14 17  2  0
 14 18  1  0
 13 19  1  0
 11 19  2  0
 19 20  1  0
 20 21  2  0
 21 22  1  0
 22 11  1  0
 20 23  1  0
  2 24  1  6
  9 25  2  0
  9 26  1  0
 26 27  1  0
 26 28  1  0
 27 11  1  0
 22 29  1  0
 23 30  1  0
M  END
> <From>
www.bindingDB.org

> <BindingDB Reactant_set_id>
50103559

> <Ligand InChI>
InChI=1S/C20H21FN6O3/c1-10-13-7-11(21)5-6-12(13)20(28)26(2)9-15-16(18(29-4)25-27(15)3)14-8-23-17(22)19(24-14)30-10/h5-8,10H,9H2,1-4H3,(H2,22,23)/t10-/m1/s1

> <Ligand InChI Key>
ONGPJRHQODCQNJ-SNVBAGLBSA-N

> <BindingDB MonomerID>
50018836

> <BindingDB Ligand Name>
CHEMBL3286826

> <Target Name>
ALK tyrosine kinase receptor

> <Target Source Organism According to Curator or DataSource>
Homo sapiens

> <Ki (nM)>
<0.080000

> <IC50 (nM)>


> <Kd (nM)>


> <EC50 (nM)>


> <kon (M-1-s-1)>


> <koff (s-1)>


> <pH>


> <Temp C>


> <Curation/DataSource>
ChEMBL

> <Article DOI>
10.1021/jm500261q

> <BindingDB Entry DOI>
10.7270/Q2K35W68

> <PMID>
24819116

> <PubChem AID>


> <Patent Number>


> <Authors>
Johnson, TW; Richardson, PF; Bailey, S; Brooun, A; Burke, BJ; Collins, MR; Cui, JJ; Deal, JG; Deng, YL; Dinh, D; Engstrom, LD; He, M; Hoffman, J; Hoffman, RL; Huang, Q; Kania, RS; Kath, JC; Lam, H; Lam, JL; Le, PT; Lingardo, L; Liu, W; McTigue, M; Palmer, CL; Sach, NW; Smeal, T; Smith, GL; Stewart, AE; Timofeevski, S; Zhu, H; Zhu, J; Zou, HY; Edwards, MP

> <Date of publication>
6/12/2014

> <Date in BindingDB>
2/11/2015

> <Institution>
Pfizer Inc

> <Link to Ligand in BindingDB>
http://www.bindingdb.org/bind/chemsearch/marvin/MolStructure.jsp?monomerid=50018836

> <Link to Ligand-Target Pair in BindingDB>
http://www.bindingdb.org/jsp/dbsearch/PrimarySearch_ki.jsp?energyterm=kJ/mole&tag=pol&polymerid=5809&target=ALK+tyrosine+kinase+receptor&column=ki&startPg=0&Increment=50&submit=Search

> <Link to Ligand-Target Pair in BindingDB>
http://www.bindingdb.org/jsp/dbsearch/PrimarySearch_ki.jsp?energyterm=kJ/mole&tag=r21&monomerid=50018836&enzyme=ALK+tyrosine+kinase+receptor&column=ki&startPg=0&Increment=50&submit=Search

> <Ligand HET ID in PDB>


> <PDB ID(s) for Ligand-Target Complex>


> <PubChem CID of Ligand>
90644201

> <PubChem SID of Ligand>
103929889

> <ChEBI ID of Ligand>


> <ChEMBL ID of Ligand>
CHEMBL3286826

> <DrugBank ID of Ligand>


> <IUPHAR_GRAC ID of Ligand>


> <KEGG ID of Ligand>


> <ZINC ID of Ligand>
ZINC33891505

> <Number of Protein Chains in Target (bigger than 1 implies a multichain complex)>
1

> <BindingDB Target Chain Sequence>
MGAIGLLWLLPLLLSTAAVGSGMGTGQRAGSPAAGPPLQPREPLSYSRLQRKSLAVDFVVPSLFRVYARDLLLPPSSSELKAGRPEARGSLALDCAPLLRLLGPAPGVSWTAGSPAPAEARTLSRVLKGGSVRKLRRAKQLVLELGEEAILEGCVGPPGEAAVGLLQFNLSELFSWWIRQGEGRLRIRLMPEKKASEVGREGRLSAAIRASQPRLLFQIFGTGHSSLESPTNMPSPSPDYFTWNLTWIMKDSFPFLSHRSRYGLECSFDFPCELEYSPPLHDLRNQSWSWRRIPSEEASQMDLLDGPGAERSKEMPRGSFLLLNTSADSKHTILSPWMRSSSEHCTLAVSVHRHLQPSGRYIAQLLPHNEAAREILLMPTPGKHGWTVLQGRIGRPDNPFRVALEYISSGNRSLSAVDFFALKNCSEGTSPGSKMALQSSFTCWNGTVLQLGQACDFHQDCAQGEDESQMCRKLPVGFYCNFEDGFCGWTQGTLSPHTPQWQVRTLKDARFQDHQDHALLLSTTDVPASESATVTSATFPAPIKSSPCELRMSWLIRGVLRGNVSLVLVENKTGKEQGRMVWHVAAYEGLSLWQWMVLPLLDVSDRFWLQMVAWWGQGSRAIVAFDNISISLDCYLTISGEDKILQNTAPKSRNLFERNPNKELKPGENSPRQTPIFDPTVHWLFTTCGASGPHGPTQAQCNNAYQNSNLSVEVGSEGPLKGIQIWKVPATDTYSISGYGAAGGKGGKNTMMRSHGVSVLGIFNLEKDDMLYILVGQQGEDACPSTNQLIQKVCIGENNVIEEEIRVNRSVHEWAGGGGGGGGATYVFKMKDGVPVPLIIAAGGGGRAYGAKTDTFHPERLENNSSVLGLNGNSGAAGGGGGWNDNTSLLWAGKSLQEGATGGHSCPQAMKKWGWETRGGFGGGGGGCSSGGGGGGYIGGNAASNNDPEMDGEDGVSFISPLGILYTPALKVMEGHGEVNIKHYLNCSHCEVDECHMDPESHKVICFCDHGTVLAEDGVSCIVSPTPEPHLPLSLILSVVTSALVAALVLAFSGIMIVYRRKHQELQAMQMELQSPEYKLSKLRTSTIMTDYNPNYCFAGKTSSISDLKEVPRKNITLIRGLGHGAFGEVYEGQVSGMPNDPSPLQVAVKTLPEVCSEQDELDFLMEALIISKFNHQNIVRCIGVSLQSLPRFILLELMAGGDLKSFLRETRPRPSQPSSLAMLDLLHVARDIACGCQYLEENHFIHRDIAARNCLLTCPGPGRVAKIGDFGMARDIYRASYYRKGGCAMLPVKWMPPEAFMEGIFTSKTDTWSFGVLLWEIFSLGYMPYPSKSNQEVLEFVTSGGRMDPPKNCPGPVYRIMTQCWQHQPEDRPNFAIILERIEYCTQDPDVINTALPIEYGPLVEEEEKVPVRPKDPEGVPPLLVSQQAKREEERSPAAPPPLPTTSSGKAAKKPTAAEISVRVPRGPAVEGGHVNMAFSQSNPPSELHKVHGSRNKPTSLWNPTYGSWFTEKPTKKNNPIAKKEPHDRGNLGLEGSCTVPPNVATGRLPGASLLLEPSSLTANMKEVPLFRLRHFPCGNVNYGYQQQGLPLEAATAPGAGHYEDTILKSKNSMNQPGP

> <PDB ID(s) of Target Chain>
2XB7,2XBA,3AOX,5FTO,5FTQ,6E0R,6EBW,6EDL,6MX8,7JY4,7JYR,7JYS,7JYT,7LS0,7MZW,7MZY,7N00,7NX3,7NX4,8ARJ

> <UniProt (SwissProt) Recommended Name of Target Chain>
ALK tyrosine kinase receptor

> <UniProt (SwissProt) Entry Name of Target Chain>
ALK_HUMAN

> <UniProt (SwissProt) Primary ID of Target Chain>
Q9UM73

> <UniProt (SwissProt) Secondary ID(s) of Target Chain>
A6P4T4 A6P4V4 Q4ZFX9 Q53QQ6 Q53RZ4 Q59FI3 Q9Y4K6

> <UniProt (SwissProt) Alternative ID(s) of Target Chain>


> <UniProt (TrEMBL) Submitted Name of Target Chain>


> <UniProt (TrEMBL) Entry Name of Target Chain>


> <UniProt (TrEMBL) Primary ID of Target Chain>


> <UniProt (TrEMBL) Secondary ID(s) of Target Chain>


> <UniProt (TrEMBL) Alternative ID(s) of Target Chain>


$$$$

  Mrv0541 11241420102D          

 33 36  0  0  0  0            999 V2000
    7.9746   -9.5163    0.0000 C   0  0  0  0  0  0  0  0  0  0  0  0
    7.9641   -8.6912    0.0000 C   0  0  0  0  0  0  0  0  0  0  0  0
    7.2465   -8.2898    0.0000 C   0  0  0  0  0  0  0  0  0  0  0  0
    6.5352   -8.7093    0.0000 C   0  0  0  0  0  0  0  0  0  0  0  0
    6.5458   -9.5345    0.0000 C   0  0  0  0  0  0  0  0  0  0  0  0
    7.2675   -9.9400    0.0000 N   0  0  0  0  0  0  0  0  0  0  0  0
    5.8177   -8.3081    0.0000 O   0  0  0  0  0  0  0  0  0  0  0  0
    5.8071   -7.4829    0.0000 C   0  0  2  0  0  0  0  0  0  0  0  0
    6.5142   -7.0592    0.0000 C   0  0  0  0  0  0  0  0  0  0  0  0
    5.0895   -7.0774    0.0000 C   0  0  0  0  0  0  0  0  0  0  0  0
    5.0789   -6.2523    0.0000 C   0  0  0  0  0  0  0  0  0  0  0  0
    4.3572   -5.8510    0.0000 C   0  0  0  0  0  0  0  0  0  0  0  0
    3.6460   -6.2706    0.0000 C   0  0  0  0  0  0  0  0  0  0  0  0
    3.6565   -7.0957    0.0000 C   0  0  0  0  0  0  0  0  0  0  0  0
    4.3783   -7.5012    0.0000 C   0  0  0  0  0  0  0  0  0  0  0  0
    5.8642   -5.0133    0.0000 N   0  0  0  0  0  0  0  0  0  0  0  0
    5.7860   -5.8328    0.0000 N   0  0  0  0  0  0  0  0  0  0  0  0
    6.5410   -6.1550    0.0000 N   0  0  0  0  0  0  0  0  0  0  0  0
    7.0878   -5.5386    0.0000 C   0  0  0  0  0  0  0  0  0  0  0  0
    6.6681   -4.8315    0.0000 C   0  0  0  0  0  0  0  0  0  0  0  0
    2.9494   -7.5194    0.0000 F   0  0  0  0  0  0  0  0  0  0  0  0
    5.8387   -9.9583    0.0000 N   0  0  0  0  0  0  0  0  0  0  0  0
    8.6719   -8.2709    0.0000 C   0  0  0  0  0  0  0  0  0  0  0  0
    9.4298   -8.5915    0.0000 C   0  0  0  0  0  0  0  0  0  0  0  0
    9.9733   -7.9743    0.0000 N   0  0  0  0  0  0  0  0  0  0  0  0
    9.5488   -7.2665    0.0000 C   0  0  0  0  0  0  0  0  0  0  0  0
    8.7457   -7.4489    0.0000 S   0  0  0  0  0  0  0  0  0  0  0  0
    9.6132   -9.3958    0.0000 C   0  0  0  0  0  0  0  0  0  0  0  0
    9.8713   -6.5114    0.0000 C   0  0  2  0  0  0  0  0  0  0  0  0
   10.6863   -6.4132    0.0000 C   0  0  0  0  0  0  0  0  0  0  0  0
   11.0088   -5.6581    0.0000 O   0  0  0  0  0  0  0  0  0  0  0  0
    9.0726   -6.2944    0.0000 C   0  0  0  0  0  0  0  0  0  0  0  0
    9.8646   -5.6891    0.0000 O   0  0  0  0  0  0  0  0  0  0  0  0
  1  2  2  0  0  0  0
  2  3  1  0  0  0  0
  3  4  2  0  0  0  0
  4  5  1  0  0  0  0
  5  6  2  0  0  0  0
  1  6  1  0  0  0  0
  8  9  1  1  0  0  0
  8  7  1  0  0  0  0
 10 11  2  0  0  0  0
 11 12  1  0  0  0  0
 12 13  2  0  0  0  0
 13 14  1  0  0  0  0
 14 15  2  0  0  0  0
 10 15  1  0  0  0  0
 16 17  1  0  0  0  0
 17 18  1  0  0  0  0
 18 19  2  0  0  0  0
 19 20  1  0  0  0  0
 16 20  2  0  0  0  0
 11 17  1  0  0  0  0
 14 21  1  0  0  0  0
  8 10  1  0  0  0  0
  4  7  1  0  0  0  0
  5 22  1  0  0  0  0
  2 23  1  0  0  0  0
 23 24  2  0  0  0  0
 24 25  1  0  0  0  0
 25 26  2  0  0  0  0
 26 27  1  0  0  0  0
 27 23  1  0  0  0  0
 24 28  1  0  0  0  0
 29 26  1  0  0  0  0
 29 30  1  0  0  0  0
 30 31  1  0  0  0  0
 29 32  1  1  0  0  0
 29 33  1  6  0  0  0
M  END
> <From>
www.bindingDB.org

> <BindingDB Reactant_set_id>
50103514

> <Ligand InChI>
InChI=1S/C22H23FN6O3S/c1-12-19(33-21(28-12)22(3,31)11-30)14-8-18(20(24)25-10-14)32-13(2)16-9-15(23)4-5-17(16)29-26-6-7-27-29/h4-10,13,30-31H,11H2,1-3H3,(H2,24,25)/t13-,22-/m1/s1

> <Ligand InChI Key>
DIXMBHMNEHPFCX-MCMMXHMISA-N

> <BindingDB MonomerID>
50448785

> <BindingDB Ligand Name>
CHEMBL3128069

> <Target Name>
ALK tyrosine kinase receptor

> <Target Source Organism According to Curator or DataSource>
Homo sapiens

> <Ki (nM)>
<0.100000

> <IC50 (nM)>


> <Kd (nM)>


> <EC50 (nM)>


> <kon (M-1-s-1)>


> <koff (s-1)>


> <pH>


> <Temp C>


> <Curation/DataSource>
ChEMBL

> <Article DOI>
10.1021/jm500261q

> <BindingDB Entry DOI>
10.7270/Q2K35W68

> <PMID>
24819116

> <PubChem AID>


> <Patent Number>


> <Authors>
Johnson, TW; Richardson, PF; Bailey, S; Brooun, A; Burke, BJ; Collins, MR; Cui, JJ; Deal, JG; Deng, YL; Dinh, D; Engstrom, LD; He, M; Hoffman, J; Hoffman, RL; Huang, Q; Kania, RS; Kath, JC; Lam, H; Lam, JL; Le, PT; Lingardo, L; Liu, W; McTigue, M; Palmer, CL; Sach, NW; Smeal, T; Smith, GL; Stewart, AE; Timofeevski, S; Zhu, H; Zhu, J; Zou, HY; Edwards, MP

> <Date of publication>
6/12/2014

> <Date in BindingDB>
2/11/2015

> <Institution>
Pfizer Inc

> <Link to Ligand in BindingDB>
http://www.bindingdb.org/bind/chemsearch/marvin/MolStructure.jsp?monomerid=50448785

> <Link to Ligand-Target Pair in BindingDB>
http://www.bindingdb.org/jsp/dbsearch/PrimarySearch_ki.jsp?energyterm=kJ/mole&tag=pol&polymerid=5809&target=ALK+tyrosine+kinase+receptor&column=ki&startPg=0&Increment=50&submit=Search

> <Link to Ligand-Target Pair in BindingDB>
http://www.bindingdb.org/jsp/dbsearch/PrimarySearch_ki.jsp?energyterm=kJ/mole&tag=r21&monomerid=50448785&enzyme=ALK+tyrosine+kinase+receptor&column=ki&startPg=0&Increment=50&submit=Search

> <Ligand HET ID in PDB>


> <PDB ID(s) for Ligand-Target Complex>


> <PubChem CID of Ligand>
72710568

> <PubChem SID of Ligand>
194946681

> <ChEBI ID of Ligand>


> <ChEMBL ID of Ligand>
CHEMBL3128069

> <DrugBank ID of Ligand>


> <IUPHAR_GRAC ID of Ligand>


> <KEGG ID of Ligand>


> <ZINC ID of Ligand>


> <Number of Protein Chains in Target (bigger than 1 implies a multichain complex)>
1

> <BindingDB Target Chain Sequence>
MGAIGLLWLLPLLLSTAAVGSGMGTGQRAGSPAAGPPLQPREPLSYSRLQRKSLAVDFVVPSLFRVYARDLLLPPSSSELKAGRPEARGSLALDCAPLLRLLGPAPGVSWTAGSPAPAEARTLSRVLKGGSVRKLRRAKQLVLELGEEAILEGCVGPPGEAAVGLLQFNLSELFSWWIRQGEGRLRIRLMPEKKASEVGREGRLSAAIRASQPRLLFQIFGTGHSSLESPTNMPSPSPDYFTWNLTWIMKDSFPFLSHRSRYGLECSFDFPCELEYSPPLHDLRNQSWSWRRIPSEEASQMDLLDGPGAERSKEMPRGSFLLLNTSADSKHTILSPWMRSSSEHCTLAVSVHRHLQPSGRYIAQLLPHNEAAREILLMPTPGKHGWTVLQGRIGRPDNPFRVALEYISSGNRSLSAVDFFALKNCSEGTSPGSKMALQSSFTCWNGTVLQLGQACDFHQDCAQGEDESQMCRKLPVGFYCNFEDGFCGWTQGTLSPHTPQWQVRTLKDARFQDHQDHALLLSTTDVPASESATVTSATFPAPIKSSPCELRMSWLIRGVLRGNVSLVLVENKTGKEQGRMVWHVAAYEGLSLWQWMVLPLLDVSDRFWLQMVAWWGQGSRAIVAFDNISISLDCYLTISGEDKILQNTAPKSRNLFERNPNKELKPGENSPRQTPIFDPTVHWLFTTCGASGPHGPTQAQCNNAYQNSNLSVEVGSEGPLKGIQIWKVPATDTYSISGYGAAGGKGGKNTMMRSHGVSVLGIFNLEKDDMLYILVGQQGEDACPSTNQLIQKVCIGENNVIEEEIRVNRSVHEWAGGGGGGGGATYVFKMKDGVPVPLIIAAGGGGRAYGAKTDTFHPERLENNSSVLGLNGNSGAAGGGGGWNDNTSLLWAGKSLQEGATGGHSCPQAMKKWGWETRGGFGGGGGGCSSGGGGGGYIGGNAASNNDPEMDGEDGVSFISPLGILYTPALKVMEGHGEVNIKHYLNCSHCEVDECHMDPESHKVICFCDHGTVLAEDGVSCIVSPTPEPHLPLSLILSVVTSALVAALVLAFSGIMIVYRRKHQELQAMQMELQSPEYKLSKLRTSTIMTDYNPNYCFAGKTSSISDLKEVPRKNITLIRGLGHGAFGEVYEGQVSGMPNDPSPLQVAVKTLPEVCSEQDELDFLMEALIISKFNHQNIVRCIGVSLQSLPRFILLELMAGGDLKSFLRETRPRPSQPSSLAMLDLLHVARDIACGCQYLEENHFIHRDIAARNCLLTCPGPGRVAKIGDFGMARDIYRASYYRKGGCAMLPVKWMPPEAFMEGIFTSKTDTWSFGVLLWEIFSLGYMPYPSKSNQEVLEFVTSGGRMDPPKNCPGPVYRIMTQCWQHQPEDRPNFAIILERIEYCTQDPDVINTALPIEYGPLVEEEEKVPVRPKDPEGVPPLLVSQQAKREEERSPAAPPPLPTTSSGKAAKKPTAAEISVRVPRGPAVEGGHVNMAFSQSNPPSELHKVHGSRNKPTSLWNPTYGSWFTEKPTKKNNPIAKKEPHDRGNLGLEGSCTVPPNVATGRLPGASLLLEPSSLTANMKEVPLFRLRHFPCGNVNYGYQQQGLPLEAATAPGAGHYEDTILKSKNSMNQPGP

> <PDB ID(s) of Target Chain>
2XB7,2XBA,3AOX,5FTO,5FTQ,6E0R,6EBW,6EDL,6MX8,7JY4,7JYR,7JYS,7JYT,7LS0,7MZW,7MZY,7N00,7NX3,7NX4,8ARJ

> <UniProt (SwissProt) Recommended Name of Target Chain>
ALK tyrosine kinase receptor

> <UniProt (SwissProt) Entry Name of Target Chain>
ALK_HUMAN

> <UniProt (SwissProt) Primary ID of Target Chain>
Q9UM73

> <UniProt (SwissProt) Secondary ID(s) of Target Chain>
A6P4T4 A6P4V4 Q4ZFX9 Q53QQ6 Q53RZ4 Q59FI3 Q9Y4K6

> <UniProt (SwissProt) Alternative ID(s) of Target Chain>


> <UniProt (TrEMBL) Submitted Name of Target Chain>


> <UniProt (TrEMBL) Entry Name of Target Chain>


> <UniProt (TrEMBL) Primary ID of Target Chain>


> <UniProt (TrEMBL) Secondary ID(s) of Target Chain>


> <UniProt (TrEMBL) Alternative ID(s) of Target Chain>


$$$$

  SciTegic09261414532D

 28 31  0  0  0  0            999 V2000
    7.8967   -4.3757    0.0000 O   0  0
    7.1797   -4.7676    0.0000 C   0  0  1  0  0  0
    6.4817   -4.3426    0.0000 C   0  0
    6.5055   -3.5254    0.0000 C   0  0
    5.8084   -3.1005    0.0000 C   0  0
    5.0903   -3.4925    0.0000 C   0  0
    5.0738   -4.3138    0.0000 C   0  0
    5.7716   -4.7350    0.0000 C   0  0
    7.2238   -3.1357    0.0000 O   0  0
    7.9204   -3.5629    0.0000 C   0  0
    8.6387   -3.1731    0.0000 C   0  0
    4.3581   -4.7082    0.0000 F   0  0
   10.7432   -3.6237    0.0000 C   0  0
    8.5764   -4.8000    0.0000 C   0  0
   10.0126   -4.8344    0.0000 C   0  0
    8.5765   -5.6193    0.0000 C   0  0
    9.3137   -4.4088    0.0000 C   0  0
    9.9935   -5.6525    0.0000 C   0  0
    9.2754   -6.0449    0.0000 N   0  0
    7.8585   -6.0118    0.0000 N   0  0
   10.7282   -4.4419    0.0000 C   0  0
   11.4992   -4.7115    0.0000 C   0  0
   11.9940   -4.0614    0.0000 N   0  0
   11.5286   -3.3902    0.0000 N   0  0
   11.7350   -5.4931    0.0000 C   0  0
   11.9702   -6.2757    0.0000 N   0  0
   12.8110   -4.0795    0.0000 C   0  0
    6.7645   -5.4727    0.0000 C   0  0
 14  1  1  0
  1  2  1  0
  2  3  1  0
  3  4  2  0
  4  5  1  0
  5  6  2  0
  6  7  1  0
  7  8  2  0
  8  3  1  0
  4  9  1  0
  9 10  1  0
 10 11  1  0
  7 12  1  0
 16 14  1  0
 14 17  2  0
 17 15  1  0
 15 18  2  0
 18 19  1  0
 16 19  2  0
 16 20  1  0
 15 21  1  0
 13 21  1  0
 21 22  2  0
 22 23  1  0
 23 24  1  0
 24 13  2  0
 25 26  3  0
 22 25  1  0
 13 11  1  0
 23 27  1  0
  2 28  1  6
M  END
> <From>
www.bindingDB.org

> <BindingDB Reactant_set_id>
50103539

> <Ligand InChI>
InChI=1S/C20H18FN5O2/c1-11-14-8-13(21)3-4-17(14)27-6-5-15-19(16(9-22)26(2)25-15)12-7-18(28-11)20(23)24-10-12/h3-4,7-8,10-11H,5-6H2,1-2H3,(H2,23,24)/t11-/m1/s1

> <Ligand InChI Key>
IEZBZICPLSCIAC-LLVKDONJSA-N

> <BindingDB MonomerID>
50018828

> <BindingDB Ligand Name>
CHEMBL3286818

> <Target Name>
ALK tyrosine kinase receptor

> <Target Source Organism According to Curator or DataSource>
Homo sapiens

> <Ki (nM)>
<0.100000

> <IC50 (nM)>


> <Kd (nM)>


> <EC50 (nM)>


> <kon (M-1-s-1)>


> <koff (s-1)>


> <pH>


> <Temp C>


> <Curation/DataSource>
ChEMBL

> <Article DOI>
10.1021/jm500261q

> <BindingDB Entry DOI>
10.7270/Q2K35W68

> <PMID>
24819116

> <PubChem AID>


> <Patent Number>


> <Authors>
Johnson, TW; Richardson, PF; Bailey, S; Brooun, A; Burke, BJ; Collins, MR; Cui, JJ; Deal, JG; Deng, YL; Dinh, D; Engstrom, LD; He, M; Hoffman, J; Hoffman, RL; Huang, Q; Kania, RS; Kath, JC; Lam, H; Lam, JL; Le, PT; Lingardo, L; Liu, W; McTigue, M; Palmer, CL; Sach, NW; Smeal, T; Smith, GL; Stewart, AE; Timofeevski, S; Zhu, H; Zhu, J; Zou, HY; Edwards, MP

> <Date of publication>
6/12/2014

> <Date in BindingDB>
2/11/2015

> <Institution>
Pfizer Inc

> <Link to Ligand in BindingDB>
http://www.bindingdb.org/bind/chemsearch/marvin/MolStructure.jsp?monomerid=50018828

> <Link to Ligand-Target Pair in BindingDB>
http://www.bindingdb.org/jsp/dbsearch/PrimarySearch_ki.jsp?energyterm=kJ/mole&tag=pol&polymerid=5809&target=ALK+tyrosine+kinase+receptor&column=ki&startPg=0&Increment=50&submit=Search

> <Link to Ligand-Target Pair in BindingDB>
http://www.bindingdb.org/jsp/dbsearch/PrimarySearch_ki.jsp?energyterm=kJ/mole&tag=r21&monomerid=50018828&enzyme=ALK+tyrosine+kinase+receptor&column=ki&startPg=0&Increment=50&submit=Search

> <Ligand HET ID in PDB>


> <PDB ID(s) for Ligand-Target Complex>


> <PubChem CID of Ligand>
90644196

> <PubChem SID of Ligand>
103929881

> <ChEBI ID of Ligand>


> <ChEMBL ID of Ligand>
CHEMBL3286818

> <DrugBank ID of Ligand>


> <IUPHAR_GRAC ID of Ligand>


> <KEGG ID of Ligand>


> <ZINC ID of Ligand>
ZINC33891514

> <Number of Protein Chains in Target (bigger than 1 implies a multichain complex)>
1

> <BindingDB Target Chain Sequence>
MGAIGLLWLLPLLLSTAAVGSGMGTGQRAGSPAAGPPLQPREPLSYSRLQRKSLAVDFVVPSLFRVYARDLLLPPSSSELKAGRPEARGSLALDCAPLLRLLGPAPGVSWTAGSPAPAEARTLSRVLKGGSVRKLRRAKQLVLELGEEAILEGCVGPPGEAAVGLLQFNLSELFSWWIRQGEGRLRIRLMPEKKASEVGREGRLSAAIRASQPRLLFQIFGTGHSSLESPTNMPSPSPDYFTWNLTWIMKDSFPFLSHRSRYGLECSFDFPCELEYSPPLHDLRNQSWSWRRIPSEEASQMDLLDGPGAERSKEMPRGSFLLLNTSADSKHTILSPWMRSSSEHCTLAVSVHRHLQPSGRYIAQLLPHNEAAREILLMPTPGKHGWTVLQGRIGRPDNPFRVALEYISSGNRSLSAVDFFALKNCSEGTSPGSKMALQSSFTCWNGTVLQLGQACDFHQDCAQGEDESQMCRKLPVGFYCNFEDGFCGWTQGTLSPHTPQWQVRTLKDARFQDHQDHALLLSTTDVPASESATVTSATFPAPIKSSPCELRMSWLIRGVLRGNVSLVLVENKTGKEQGRMVWHVAAYEGLSLWQWMVLPLLDVSDRFWLQMVAWWGQGSRAIVAFDNISISLDCYLTISGEDKILQNTAPKSRNLFERNPNKELKPGENSPRQTPIFDPTVHWLFTTCGASGPHGPTQAQCNNAYQNSNLSVEVGSEGPLKGIQIWKVPATDTYSISGYGAAGGKGGKNTMMRSHGVSVLGIFNLEKDDMLYILVGQQGEDACPSTNQLIQKVCIGENNVIEEEIRVNRSVHEWAGGGGGGGGATYVFKMKDGVPVPLIIAAGGGGRAYGAKTDTFHPERLENNSSVLGLNGNSGAAGGGGGWNDNTSLLWAGKSLQEGATGGHSCPQAMKKWGWETRGGFGGGGGGCSSGGGGGGYIGGNAASNNDPEMDGEDGVSFISPLGILYTPALKVMEGHGEVNIKHYLNCSHCEVDECHMDPESHKVICFCDHGTVLAEDGVSCIVSPTPEPHLPLSLILSVVTSALVAALVLAFSGIMIVYRRKHQELQAMQMELQSPEYKLSKLRTSTIMTDYNPNYCFAGKTSSISDLKEVPRKNITLIRGLGHGAFGEVYEGQVSGMPNDPSPLQVAVKTLPEVCSEQDELDFLMEALIISKFNHQNIVRCIGVSLQSLPRFILLELMAGGDLKSFLRETRPRPSQPSSLAMLDLLHVARDIACGCQYLEENHFIHRDIAARNCLLTCPGPGRVAKIGDFGMARDIYRASYYRKGGCAMLPVKWMPPEAFMEGIFTSKTDTWSFGVLLWEIFSLGYMPYPSKSNQEVLEFVTSGGRMDPPKNCPGPVYRIMTQCWQHQPEDRPNFAIILERIEYCTQDPDVINTALPIEYGPLVEEEEKVPVRPKDPEGVPPLLVSQQAKREEERSPAAPPPLPTTSSGKAAKKPTAAEISVRVPRGPAVEGGHVNMAFSQSNPPSELHKVHGSRNKPTSLWNPTYGSWFTEKPTKKNNPIAKKEPHDRGNLGLEGSCTVPPNVATGRLPGASLLLEPSSLTANMKEVPLFRLRHFPCGNVNYGYQQQGLPLEAATAPGAGHYEDTILKSKNSMNQPGP

> <PDB ID(s) of Target Chain>
2XB7,2XBA,3AOX,5FTO,5FTQ,6E0R,6EBW,6EDL,6MX8,7JY4,7JYR,7JYS,7JYT,7LS0,7MZW,7MZY,7N00,7NX3,7NX4,8ARJ

> <UniProt (SwissProt) Recommended Name of Target Chain>
ALK tyrosine kinase receptor

> <UniProt (SwissProt) Entry Name of Target Chain>
ALK_HUMAN

> <UniProt (SwissProt) Primary ID of Target Chain>
Q9UM73

> <UniProt (SwissProt) Secondary ID(s) of Target Chain>
A6P4T4 A6P4V4 Q4ZFX9 Q53QQ6 Q53RZ4 Q59FI3 Q9Y4K6

> <UniProt (SwissProt) Alternative ID(s) of Target Chain>


> <UniProt (TrEMBL) Submitted Name of Target Chain>


> <UniProt (TrEMBL) Entry Name of Target Chain>


> <UniProt (TrEMBL) Primary ID of Target Chain>


> <UniProt (TrEMBL) Secondary ID(s) of Target Chain>


> <UniProt (TrEMBL) Alternative ID(s) of Target Chain>


$$$$

  SciTegic09261414532D

 29 32  0  0  0  0            999 V2000
    7.9716   -4.4172    0.0000 O   0  0
    7.2478   -4.8128    0.0000 C   0  0  1  0  0  0
    6.5432   -4.3838    0.0000 C   0  0
    6.5672   -3.5588    0.0000 C   0  0
    5.8635   -3.1299    0.0000 C   0  0
    5.1386   -3.5256    0.0000 C   0  0
    5.1219   -4.3547    0.0000 C   0  0
    5.8263   -4.7799    0.0000 C   0  0
    7.2923   -3.1654    0.0000 O   0  0
    7.9955   -3.5967    0.0000 C   0  0
    8.7206   -3.2032    0.0000 C   0  0
    4.3994   -4.7528    0.0000 F   0  0
   10.8451   -3.6581    0.0000 C   0  0
    8.6577   -4.8455    0.0000 C   0  0
   10.1075   -4.8802    0.0000 C   0  0
    8.6578   -5.6726    0.0000 C   0  0
    9.4020   -4.4506    0.0000 C   0  0
   10.0883   -5.7061    0.0000 C   0  0
    9.3633   -6.1022    0.0000 N   0  0
    7.9330   -6.0688    0.0000 N   0  0
   10.8299   -4.4840    0.0000 C   0  0
   11.6082   -4.7562    0.0000 C   0  0
   12.1077   -4.0999    0.0000 N   0  0
   11.6379   -3.4223    0.0000 N   0  0
   11.8463   -5.5452    0.0000 C   0  0
   12.0837   -6.3352    0.0000 N   0  0
   12.9325   -4.1182    0.0000 C   0  0
    6.8286   -5.5246    0.0000 C   0  0
    9.4239   -3.6344    0.0000 C   0  0
 14  1  1  0
  1  2  1  0
  2  3  1  0
  3  4  2  0
  4  5  1  0
  5  6  2  0
  6  7  1  0
  7  8  2  0
  8  3  1  0
  4  9  1  0
  9 10  1  0
 10 11  1  0
  7 12  1  0
 16 14  1  0
 14 17  2  0
 17 15  1  0
 15 18  2  0
 18 19  1  0
 16 19  2  0
 16 20  1  0
 15 21  1  0
 13 21  1  0
 21 22  2  0
 22 23  1  0
 23 24  1  0
 24 13  2  0
 25 26  3  0
 22 25  1  0
 23 27  1  0
  2 28  1  6
 11 29  1  0
 29 13  1  0
M  END
> <From>
www.bindingDB.org

> <BindingDB Reactant_set_id>
50103540

> <Ligand InChI>
InChI=1S/C21H20FN5O2/c1-12-15-9-14(22)5-6-18(15)28-7-3-4-16-20(17(10-23)27(2)26-16)13-8-19(29-12)21(24)25-11-13/h5-6,8-9,11-12H,3-4,7H2,1-2H3,(H2,24,25)/t12-/m1/s1

> <Ligand InChI Key>
HSBYECUDEOYBCG-GFCCVEGCSA-N

> <BindingDB MonomerID>
50018829

> <BindingDB Ligand Name>
CHEMBL3286819

> <Target Name>
ALK tyrosine kinase receptor

> <Target Source Organism According to Curator or DataSource>
Homo sapiens

> <Ki (nM)>
<0.100000

> <IC50 (nM)>


> <Kd (nM)>


> <EC50 (nM)>


> <kon (M-1-s-1)>


> <koff (s-1)>


> <pH>


> <Temp C>


> <Curation/DataSource>
ChEMBL

> <Article DOI>
10.1021/jm500261q

> <BindingDB Entry DOI>
10.7270/Q2K35W68

> <PMID>
24819116

> <PubChem AID>


> <Patent Number>


> <Authors>
Johnson, TW; Richardson, PF; Bailey, S; Brooun, A; Burke, BJ; Collins, MR; Cui, JJ; Deal, JG; Deng, YL; Dinh, D; Engstrom, LD; He, M; Hoffman, J; Hoffman, RL; Huang, Q; Kania, RS; Kath, JC; Lam, H; Lam, JL; Le, PT; Lingardo, L; Liu, W; McTigue, M; Palmer, CL; Sach, NW; Smeal, T; Smith, GL; Stewart, AE; Timofeevski, S; Zhu, H; Zhu, J; Zou, HY; Edwards, MP

> <Date of publication>
6/12/2014

> <Date in BindingDB>
2/11/2015

> <Institution>
Pfizer Inc

> <Link to Ligand in BindingDB>
http://www.bindingdb.org/bind/chemsearch/marvin/MolStructure.jsp?monomerid=50018829

> <Link to Ligand-Target Pair in BindingDB>
http://www.bindingdb.org/jsp/dbsearch/PrimarySearch_ki.jsp?energyterm=kJ/mole&tag=pol&polymerid=5809&target=ALK+tyrosine+kinase+receptor&column=ki&startPg=0&Increment=50&submit=Search

> <Link to Ligand-Target Pair in BindingDB>
http://www.bindingdb.org/jsp/dbsearch/PrimarySearch_ki.jsp?energyterm=kJ/mole&tag=r21&monomerid=50018829&enzyme=ALK+tyrosine+kinase+receptor&column=ki&startPg=0&Increment=50&submit=Search

> <Ligand HET ID in PDB>


> <PDB ID(s) for Ligand-Target Complex>


> <PubChem CID of Ligand>
90644197

> <PubChem SID of Ligand>
103929882

> <ChEBI ID of Ligand>


> <ChEMBL ID of Ligand>
CHEMBL3286819

> <DrugBank ID of Ligand>


> <IUPHAR_GRAC ID of Ligand>


> <KEGG ID of Ligand>


> <ZINC ID of Ligand>
ZINC33891501

> <Number of Protein Chains in Target (bigger than 1 implies a multichain complex)>
1

> <BindingDB Target Chain Sequence>
MGAIGLLWLLPLLLSTAAVGSGMGTGQRAGSPAAGPPLQPREPLSYSRLQRKSLAVDFVVPSLFRVYARDLLLPPSSSELKAGRPEARGSLALDCAPLLRLLGPAPGVSWTAGSPAPAEARTLSRVLKGGSVRKLRRAKQLVLELGEEAILEGCVGPPGEAAVGLLQFNLSELFSWWIRQGEGRLRIRLMPEKKASEVGREGRLSAAIRASQPRLLFQIFGTGHSSLESPTNMPSPSPDYFTWNLTWIMKDSFPFLSHRSRYGLECSFDFPCELEYSPPLHDLRNQSWSWRRIPSEEASQMDLLDGPGAERSKEMPRGSFLLLNTSADSKHTILSPWMRSSSEHCTLAVSVHRHLQPSGRYIAQLLPHNEAAREILLMPTPGKHGWTVLQGRIGRPDNPFRVALEYISSGNRSLSAVDFFALKNCSEGTSPGSKMALQSSFTCWNGTVLQLGQACDFHQDCAQGEDESQMCRKLPVGFYCNFEDGFCGWTQGTLSPHTPQWQVRTLKDARFQDHQDHALLLSTTDVPASESATVTSATFPAPIKSSPCELRMSWLIRGVLRGNVSLVLVENKTGKEQGRMVWHVAAYEGLSLWQWMVLPLLDVSDRFWLQMVAWWGQGSRAIVAFDNISISLDCYLTISGEDKILQNTAPKSRNLFERNPNKELKPGENSPRQTPIFDPTVHWLFTTCGASGPHGPTQAQCNNAYQNSNLSVEVGSEGPLKGIQIWKVPATDTYSISGYGAAGGKGGKNTMMRSHGVSVLGIFNLEKDDMLYILVGQQGEDACPSTNQLIQKVCIGENNVIEEEIRVNRSVHEWAGGGGGGGGATYVFKMKDGVPVPLIIAAGGGGRAYGAKTDTFHPERLENNSSVLGLNGNSGAAGGGGGWNDNTSLLWAGKSLQEGATGGHSCPQAMKKWGWETRGGFGGGGGGCSSGGGGGGYIGGNAASNNDPEMDGEDGVSFISPLGILYTPALKVMEGHGEVNIKHYLNCSHCEVDECHMDPESHKVICFCDHGTVLAEDGVSCIVSPTPEPHLPLSLILSVVTSALVAALVLAFSGIMIVYRRKHQELQAMQMELQSPEYKLSKLRTSTIMTDYNPNYCFAGKTSSISDLKEVPRKNITLIRGLGHGAFGEVYEGQVSGMPNDPSPLQVAVKTLPEVCSEQDELDFLMEALIISKFNHQNIVRCIGVSLQSLPRFILLELMAGGDLKSFLRETRPRPSQPSSLAMLDLLHVARDIACGCQYLEENHFIHRDIAARNCLLTCPGPGRVAKIGDFGMARDIYRASYYRKGGCAMLPVKWMPPEAFMEGIFTSKTDTWSFGVLLWEIFSLGYMPYPSKSNQEVLEFVTSGGRMDPPKNCPGPVYRIMTQCWQHQPEDRPNFAIILERIEYCTQDPDVINTALPIEYGPLVEEEEKVPVRPKDPEGVPPLLVSQQAKREEERSPAAPPPLPTTSSGKAAKKPTAAEISVRVPRGPAVEGGHVNMAFSQSNPPSELHKVHGSRNKPTSLWNPTYGSWFTEKPTKKNNPIAKKEPHDRGNLGLEGSCTVPPNVATGRLPGASLLLEPSSLTANMKEVPLFRLRHFPCGNVNYGYQQQGLPLEAATAPGAGHYEDTILKSKNSMNQPGP

> <PDB ID(s) of Target Chain>
2XB7,2XBA,3AOX,5FTO,5FTQ,6E0R,6EBW,6EDL,6MX8,7JY4,7JYR,7JYS,7JYT,7LS0,7MZW,7MZY,7N00,7NX3,7NX4,8ARJ

> <UniProt (SwissProt) Recommended Name of Target Chain>
ALK tyrosine kinase receptor

> <UniProt (SwissProt) Entry Name of Target Chain>
ALK_HUMAN

> <UniProt (SwissProt) Primary ID of Target Chain>
Q9UM73

> <UniProt (SwissProt) Secondary ID(s) of Target Chain>
A6P4T4 A6P4V4 Q4ZFX9 Q53QQ6 Q53RZ4 Q59FI3 Q9Y4K6

> <UniProt (SwissProt) Alternative ID(s) of Target Chain>


> <UniProt (TrEMBL) Submitted Name of Target Chain>


> <UniProt (TrEMBL) Entry Name of Target Chain>


> <UniProt (TrEMBL) Primary ID of Target Chain>


> <UniProt (TrEMBL) Secondary ID(s) of Target Chain>


> <UniProt (TrEMBL) Alternative ID(s) of Target Chain>


$$$$

  SciTegic09261414532D

 32 35  0  0  0  0            999 V2000
    9.5141   -4.2540    0.0000 S   0  0
    9.0957   -4.9560    0.0000 O   0  0
    9.9128   -4.9674    0.0000 O   0  0
    4.6404   -3.7483    0.0000 O   0  0
    3.9398   -4.1320    0.0000 C   0  0  1  0  0  0
    3.2542   -3.7153    0.0000 C   0  0
    3.2780   -2.9146    0.0000 C   0  0
    2.5933   -2.4979    0.0000 C   0  0
    1.8917   -2.8817    0.0000 C   0  0
    1.8752   -3.6864    0.0000 C   0  0
    2.5606   -4.0994    0.0000 C   0  0
    3.9839   -2.5331    0.0000 C   0  0
    1.1719   -4.0726    0.0000 F   0  0
    5.3076   -4.1644    0.0000 C   0  0
    6.7149   -4.1988    0.0000 C   0  0
    5.3078   -4.9672    0.0000 C   0  0
    6.0325   -3.7814    0.0000 N   0  0
    6.6958   -5.0003    0.0000 C   0  0
    5.9943   -5.3846    0.0000 N   0  0
    4.6021   -5.3515    0.0000 N   0  0
    4.6798   -2.9615    0.0000 O   0  0
    4.0069   -1.7163    0.0000 N   0  0
    4.7258   -1.3277    0.0000 C   0  0
    3.3110   -1.2879    0.0000 C   0  0
    3.5247   -4.8371    0.0000 C   0  0
    7.4317   -3.0087    0.0000 C   0  0
    7.4181   -3.8145    0.0000 C   0  0
    8.1081   -4.2274    0.0000 C   0  0
    8.8122   -3.8356    0.0000 C   0  0
    8.8219   -3.0267    0.0000 C   0  0
    8.1313   -2.6174    0.0000 C   0  0
   10.2274   -3.8553    0.0000 C   0  0
  2  1  2  0
  1  3  2  0
 14  4  1  0
  4  5  1  0
  5  6  1  0
  6  7  2  0
  7  8  1  0
  8  9  2  0
  9 10  1  0
 10 11  2  0
 11  6  1  0
  7 12  1  0
 10 13  1  0
 16 14  1  0
 14 17  2  0
 17 15  1  0
 15 18  2  0
 18 19  1  0
 16 19  2  0
 16 20  1  0
 15 27  1  0
 12 21  2  0
 12 22  1  0
 22 23  1  0
 22 24  1  0
 23 26  1  0
  5 25  1  6
 26 27  2  0
 27 28  1  0
 28 29  2  0
 29 30  1  0
 30 31  2  0
 31 26  1  0
 29  1  1  0
  1 32  1  0
M  END
> <From>
www.bindingDB.org

> <BindingDB Reactant_set_id>
50103561

> <Ligand InChI>
InChI=1S/C22H21FN4O4S/c1-12-17-8-14(23)5-7-16(17)22(28)27(2)11-13-4-6-15(32(3,29)30)9-18(13)19-10-25-20(24)21(26-19)31-12/h4-10,12H,11H2,1-3H3,(H2,24,25)/t12-/m1/s1

> <Ligand InChI Key>
YNONWHZLPLWALE-GFCCVEGCSA-N

> <BindingDB MonomerID>
50018838

> <BindingDB Ligand Name>
CHEMBL3286828

> <Target Name>
ALK tyrosine kinase receptor

> <Target Source Organism According to Curator or DataSource>
Homo sapiens

> <Ki (nM)>
<0.100000

> <IC50 (nM)>


> <Kd (nM)>


> <EC50 (nM)>


> <kon (M-1-s-1)>


> <koff (s-1)>


> <pH>


> <Temp C>


> <Curation/DataSource>
ChEMBL

> <Article DOI>
10.1021/jm500261q

> <BindingDB Entry DOI>
10.7270/Q2K35W68

> <PMID>
24819116

> <PubChem AID>


> <Patent Number>


> <Authors>
Johnson, TW; Richardson, PF; Bailey, S; Brooun, A; Burke, BJ; Collins, MR; Cui, JJ; Deal, JG; Deng, YL; Dinh, D; Engstrom, LD; He, M; Hoffman, J; Hoffman, RL; Huang, Q; Kania, RS; Kath, JC; Lam, H; Lam, JL; Le, PT; Lingardo, L; Liu, W; McTigue, M; Palmer, CL; Sach, NW; Smeal, T; Smith, GL; Stewart, AE; Timofeevski, S; Zhu, H; Zhu, J; Zou, HY; Edwards, MP

> <Date of publication>
6/12/2014

> <Date in BindingDB>
2/11/2015

> <Institution>
Pfizer Inc

> <Link to Ligand in BindingDB>
http://www.bindingdb.org/bind/chemsearch/marvin/MolStructure.jsp?monomerid=50018838

> <Link to Ligand-Target Pair in BindingDB>
http://www.bindingdb.org/jsp/dbsearch/PrimarySearch_ki.jsp?energyterm=kJ/mole&tag=pol&polymerid=5809&target=ALK+tyrosine+kinase+receptor&column=ki&startPg=0&Increment=50&submit=Search

> <Link to Ligand-Target Pair in BindingDB>
http://www.bindingdb.org/jsp/dbsearch/PrimarySearch_ki.jsp?energyterm=kJ/mole&tag=r21&monomerid=50018838&enzyme=ALK+tyrosine+kinase+receptor&column=ki&startPg=0&Increment=50&submit=Search

> <Ligand HET ID in PDB>


> <PDB ID(s) for Ligand-Target Complex>


> <PubChem CID of Ligand>
90644202

> <PubChem SID of Ligand>
103929891

> <ChEBI ID of Ligand>


> <ChEMBL ID of Ligand>
CHEMBL3286828

> <DrugBank ID of Ligand>


> <IUPHAR_GRAC ID of Ligand>


> <KEGG ID of Ligand>


> <ZINC ID of Ligand>
ZINC36080040

> <Number of Protein Chains in Target (bigger than 1 implies a multichain complex)>
1

> <BindingDB Target Chain Sequence>
MGAIGLLWLLPLLLSTAAVGSGMGTGQRAGSPAAGPPLQPREPLSYSRLQRKSLAVDFVVPSLFRVYARDLLLPPSSSELKAGRPEARGSLALDCAPLLRLLGPAPGVSWTAGSPAPAEARTLSRVLKGGSVRKLRRAKQLVLELGEEAILEGCVGPPGEAAVGLLQFNLSELFSWWIRQGEGRLRIRLMPEKKASEVGREGRLSAAIRASQPRLLFQIFGTGHSSLESPTNMPSPSPDYFTWNLTWIMKDSFPFLSHRSRYGLECSFDFPCELEYSPPLHDLRNQSWSWRRIPSEEASQMDLLDGPGAERSKEMPRGSFLLLNTSADSKHTILSPWMRSSSEHCTLAVSVHRHLQPSGRYIAQLLPHNEAAREILLMPTPGKHGWTVLQGRIGRPDNPFRVALEYISSGNRSLSAVDFFALKNCSEGTSPGSKMALQSSFTCWNGTVLQLGQACDFHQDCAQGEDESQMCRKLPVGFYCNFEDGFCGWTQGTLSPHTPQWQVRTLKDARFQDHQDHALLLSTTDVPASESATVTSATFPAPIKSSPCELRMSWLIRGVLRGNVSLVLVENKTGKEQGRMVWHVAAYEGLSLWQWMVLPLLDVSDRFWLQMVAWWGQGSRAIVAFDNISISLDCYLTISGEDKILQNTAPKSRNLFERNPNKELKPGENSPRQTPIFDPTVHWLFTTCGASGPHGPTQAQCNNAYQNSNLSVEVGSEGPLKGIQIWKVPATDTYSISGYGAAGGKGGKNTMMRSHGVSVLGIFNLEKDDMLYILVGQQGEDACPSTNQLIQKVCIGENNVIEEEIRVNRSVHEWAGGGGGGGGATYVFKMKDGVPVPLIIAAGGGGRAYGAKTDTFHPERLENNSSVLGLNGNSGAAGGGGGWNDNTSLLWAGKSLQEGATGGHSCPQAMKKWGWETRGGFGGGGGGCSSGGGGGGYIGGNAASNNDPEMDGEDGVSFISPLGILYTPALKVMEGHGEVNIKHYLNCSHCEVDECHMDPESHKVICFCDHGTVLAEDGVSCIVSPTPEPHLPLSLILSVVTSALVAALVLAFSGIMIVYRRKHQELQAMQMELQSPEYKLSKLRTSTIMTDYNPNYCFAGKTSSISDLKEVPRKNITLIRGLGHGAFGEVYEGQVSGMPNDPSPLQVAVKTLPEVCSEQDELDFLMEALIISKFNHQNIVRCIGVSLQSLPRFILLELMAGGDLKSFLRETRPRPSQPSSLAMLDLLHVARDIACGCQYLEENHFIHRDIAARNCLLTCPGPGRVAKIGDFGMARDIYRASYYRKGGCAMLPVKWMPPEAFMEGIFTSKTDTWSFGVLLWEIFSLGYMPYPSKSNQEVLEFVTSGGRMDPPKNCPGPVYRIMTQCWQHQPEDRPNFAIILERIEYCTQDPDVINTALPIEYGPLVEEEEKVPVRPKDPEGVPPLLVSQQAKREEERSPAAPPPLPTTSSGKAAKKPTAAEISVRVPRGPAVEGGHVNMAFSQSNPPSELHKVHGSRNKPTSLWNPTYGSWFTEKPTKKNNPIAKKEPHDRGNLGLEGSCTVPPNVATGRLPGASLLLEPSSLTANMKEVPLFRLRHFPCGNVNYGYQQQGLPLEAATAPGAGHYEDTILKSKNSMNQPGP

> <PDB ID(s) of Target Chain>
2XB7,2XBA,3AOX,5FTO,5FTQ,6E0R,6EBW,6EDL,6MX8,7JY4,7JYR,7JYS,7JYT,7LS0,7MZW,7MZY,7N00,7NX3,7NX4,8ARJ

> <UniProt (SwissProt) Recommended Name of Target Chain>
ALK tyrosine kinase receptor

> <UniProt (SwissProt) Entry Name of Target Chain>
ALK_HUMAN

> <UniProt (SwissProt) Primary ID of Target Chain>
Q9UM73

> <UniProt (SwissProt) Secondary ID(s) of Target Chain>
A6P4T4 A6P4V4 Q4ZFX9 Q53QQ6 Q53RZ4 Q59FI3 Q9Y4K6

> <UniProt (SwissProt) Alternative ID(s) of Target Chain>


> <UniProt (TrEMBL) Submitted Name of Target Chain>


> <UniProt (TrEMBL) Entry Name of Target Chain>


> <UniProt (TrEMBL) Primary ID of Target Chain>


> <UniProt (TrEMBL) Secondary ID(s) of Target Chain>


> <UniProt (TrEMBL) Alternative ID(s) of Target Chain>


$$$$

  SciTegic09261414532D

 27 30  0  0  0  0            999 V2000
   11.4214   -4.2807    0.0000 O   0  0
   10.7043   -4.6727    0.0000 C   0  0
   10.0064   -4.2477    0.0000 C   0  0
   10.0302   -3.4305    0.0000 C   0  0
    9.3330   -3.0056    0.0000 C   0  0
    8.6150   -3.3976    0.0000 C   0  0
    8.5984   -4.2188    0.0000 C   0  0
    9.2962   -4.6401    0.0000 C   0  0
   10.7484   -3.0408    0.0000 O   0  0
   11.4451   -3.4680    0.0000 C   0  0
   12.1634   -3.0782    0.0000 C   0  0
   12.8600   -3.5054    0.0000 C   0  0
    7.8827   -4.6133    0.0000 F   0  0
   14.2678   -3.5288    0.0000 C   0  0
   12.1010   -4.7050    0.0000 C   0  0
   13.5372   -4.7395    0.0000 C   0  0
   12.1012   -5.5244    0.0000 C   0  0
   12.8383   -4.3139    0.0000 C   0  0
   13.5181   -5.5575    0.0000 C   0  0
   12.8001   -5.9500    0.0000 N   0  0
   11.3832   -5.9169    0.0000 N   0  0
   14.2528   -4.3469    0.0000 C   0  0
   15.0239   -4.6165    0.0000 C   0  0
   15.5186   -3.9665    0.0000 N   0  0
   15.0532   -3.2952    0.0000 N   0  0
   15.2596   -5.3982    0.0000 C   0  0
   15.4948   -6.1808    0.0000 N   0  0
 15  1  1  0
  1  2  1  0
  2  3  1  0
  3  4  2  0
  4  5  1  0
  5  6  2  0
  6  7  1  0
  7  8  2  0
  8  3  1  0
  4  9  1  0
  9 10  1  0
 10 11  1  0
 11 12  1  0
 12 14  1  0
  7 13  1  0
 17 15  1  0
 15 18  2  0
 18 16  1  0
 16 19  2  0
 19 20  1  0
 17 20  2  0
 17 21  1  0
 16 22  1  0
 14 22  1  0
 22 23  2  0
 23 24  1  0
 24 25  1  0
 25 14  2  0
 26 27  3  0
 23 26  1  0
M  END
> <From>
www.bindingDB.org

> <BindingDB Reactant_set_id>
50103573

> <Ligand InChI>
InChI=1S/C19H16FN5O2/c20-13-3-4-16-12(6-13)10-27-17-7-11(9-23-19(17)22)18-14(2-1-5-26-16)24-25-15(18)8-21/h3-4,6-7,9H,1-2,5,10H2,(H2,22,23)(H,24,25)

> <Ligand InChI Key>
IXNVIDNGIIKHPP-UHFFFAOYSA-N

> <BindingDB MonomerID>
50018825

> <BindingDB Ligand Name>
CHEMBL3286815

> <Target Name>
ALK tyrosine kinase receptor

> <Target Source Organism According to Curator or DataSource>
Homo sapiens

> <Ki (nM)>
<0.100000

> <IC50 (nM)>


> <Kd (nM)>


> <EC50 (nM)>


> <kon (M-1-s-1)>


> <koff (s-1)>


> <pH>


> <Temp C>


> <Curation/DataSource>
ChEMBL

> <Article DOI>
10.1021/jm500261q

> <BindingDB Entry DOI>
10.7270/Q2K35W68

> <PMID>
24819116

> <PubChem AID>


> <Patent Number>


> <Authors>
Johnson, TW; Richardson, PF; Bailey, S; Brooun, A; Burke, BJ; Collins, MR; Cui, JJ; Deal, JG; Deng, YL; Dinh, D; Engstrom, LD; He, M; Hoffman, J; Hoffman, RL; Huang, Q; Kania, RS; Kath, JC; Lam, H; Lam, JL; Le, PT; Lingardo, L; Liu, W; McTigue, M; Palmer, CL; Sach, NW; Smeal, T; Smith, GL; Stewart, AE; Timofeevski, S; Zhu, H; Zhu, J; Zou, HY; Edwards, MP

> <Date of publication>
6/12/2014

> <Date in BindingDB>
2/11/2015

> <Institution>
Pfizer Inc

> <Link to Ligand in BindingDB>
http://www.bindingdb.org/bind/chemsearch/marvin/MolStructure.jsp?monomerid=50018825

> <Link to Ligand-Target Pair in BindingDB>
http://www.bindingdb.org/jsp/dbsearch/PrimarySearch_ki.jsp?energyterm=kJ/mole&tag=pol&polymerid=5809&target=ALK+tyrosine+kinase+receptor&column=ki&startPg=0&Increment=50&submit=Search

> <Link to Ligand-Target Pair in BindingDB>
http://www.bindingdb.org/jsp/dbsearch/PrimarySearch_ki.jsp?energyterm=kJ/mole&tag=r21&monomerid=50018825&enzyme=ALK+tyrosine+kinase+receptor&column=ki&startPg=0&Increment=50&submit=Search

> <Ligand HET ID in PDB>


> <PDB ID(s) for Ligand-Target Complex>


> <PubChem CID of Ligand>
71732094

> <PubChem SID of Ligand>
103929878

> <ChEBI ID of Ligand>


> <ChEMBL ID of Ligand>
CHEMBL3286815

> <DrugBank ID of Ligand>


> <IUPHAR_GRAC ID of Ligand>


> <KEGG ID of Ligand>


> <ZINC ID of Ligand>
ZINC33891532

> <Number of Protein Chains in Target (bigger than 1 implies a multichain complex)>
1

> <BindingDB Target Chain Sequence>
MGAIGLLWLLPLLLSTAAVGSGMGTGQRAGSPAAGPPLQPREPLSYSRLQRKSLAVDFVVPSLFRVYARDLLLPPSSSELKAGRPEARGSLALDCAPLLRLLGPAPGVSWTAGSPAPAEARTLSRVLKGGSVRKLRRAKQLVLELGEEAILEGCVGPPGEAAVGLLQFNLSELFSWWIRQGEGRLRIRLMPEKKASEVGREGRLSAAIRASQPRLLFQIFGTGHSSLESPTNMPSPSPDYFTWNLTWIMKDSFPFLSHRSRYGLECSFDFPCELEYSPPLHDLRNQSWSWRRIPSEEASQMDLLDGPGAERSKEMPRGSFLLLNTSADSKHTILSPWMRSSSEHCTLAVSVHRHLQPSGRYIAQLLPHNEAAREILLMPTPGKHGWTVLQGRIGRPDNPFRVALEYISSGNRSLSAVDFFALKNCSEGTSPGSKMALQSSFTCWNGTVLQLGQACDFHQDCAQGEDESQMCRKLPVGFYCNFEDGFCGWTQGTLSPHTPQWQVRTLKDARFQDHQDHALLLSTTDVPASESATVTSATFPAPIKSSPCELRMSWLIRGVLRGNVSLVLVENKTGKEQGRMVWHVAAYEGLSLWQWMVLPLLDVSDRFWLQMVAWWGQGSRAIVAFDNISISLDCYLTISGEDKILQNTAPKSRNLFERNPNKELKPGENSPRQTPIFDPTVHWLFTTCGASGPHGPTQAQCNNAYQNSNLSVEVGSEGPLKGIQIWKVPATDTYSISGYGAAGGKGGKNTMMRSHGVSVLGIFNLEKDDMLYILVGQQGEDACPSTNQLIQKVCIGENNVIEEEIRVNRSVHEWAGGGGGGGGATYVFKMKDGVPVPLIIAAGGGGRAYGAKTDTFHPERLENNSSVLGLNGNSGAAGGGGGWNDNTSLLWAGKSLQEGATGGHSCPQAMKKWGWETRGGFGGGGGGCSSGGGGGGYIGGNAASNNDPEMDGEDGVSFISPLGILYTPALKVMEGHGEVNIKHYLNCSHCEVDECHMDPESHKVICFCDHGTVLAEDGVSCIVSPTPEPHLPLSLILSVVTSALVAALVLAFSGIMIVYRRKHQELQAMQMELQSPEYKLSKLRTSTIMTDYNPNYCFAGKTSSISDLKEVPRKNITLIRGLGHGAFGEVYEGQVSGMPNDPSPLQVAVKTLPEVCSEQDELDFLMEALIISKFNHQNIVRCIGVSLQSLPRFILLELMAGGDLKSFLRETRPRPSQPSSLAMLDLLHVARDIACGCQYLEENHFIHRDIAARNCLLTCPGPGRVAKIGDFGMARDIYRASYYRKGGCAMLPVKWMPPEAFMEGIFTSKTDTWSFGVLLWEIFSLGYMPYPSKSNQEVLEFVTSGGRMDPPKNCPGPVYRIMTQCWQHQPEDRPNFAIILERIEYCTQDPDVINTALPIEYGPLVEEEEKVPVRPKDPEGVPPLLVSQQAKREEERSPAAPPPLPTTSSGKAAKKPTAAEISVRVPRGPAVEGGHVNMAFSQSNPPSELHKVHGSRNKPTSLWNPTYGSWFTEKPTKKNNPIAKKEPHDRGNLGLEGSCTVPPNVATGRLPGASLLLEPSSLTANMKEVPLFRLRHFPCGNVNYGYQQQGLPLEAATAPGAGHYEDTILKSKNSMNQPGP

> <PDB ID(s) of Target Chain>
2XB7,2XBA,3AOX,5FTO,5FTQ,6E0R,6EBW,6EDL,6MX8,7JY4,7JYR,7JYS,7JYT,7LS0,7MZW,7MZY,7N00,7NX3,7NX4,8ARJ

> <UniProt (SwissProt) Recommended Name of Target Chain>
ALK tyrosine kinase receptor

> <UniProt (SwissProt) Entry Name of Target Chain>
ALK_HUMAN

> <UniProt (SwissProt) Primary ID of Target Chain>
Q9UM73

> <UniProt (SwissProt) Secondary ID(s) of Target Chain>
A6P4T4 A6P4V4 Q4ZFX9 Q53QQ6 Q53RZ4 Q59FI3 Q9Y4K6

> <UniProt (SwissProt) Alternative ID(s) of Target Chain>


> <UniProt (TrEMBL) Submitted Name of Target Chain>


> <UniProt (TrEMBL) Entry Name of Target Chain>


> <UniProt (TrEMBL) Primary ID of Target Chain>


> <UniProt (TrEMBL) Secondary ID(s) of Target Chain>


> <UniProt (TrEMBL) Alternative ID(s) of Target Chain>


$$$$

  SciTegic09261414532D

 29 32  0  0  0  0            999 V2000
    4.9153   -4.1332    0.0000 O   0  0
    4.1943   -4.5280    0.0000 C   0  0  1  0  0  0
    3.4888   -4.0991    0.0000 C   0  0
    3.5133   -3.2753    0.0000 C   0  0
    2.8087   -2.8465    0.0000 C   0  0
    2.0868   -3.2413    0.0000 C   0  0
    2.0698   -4.0695    0.0000 C   0  0
    2.7751   -4.4945    0.0000 C   0  0
    4.2397   -2.8827    0.0000 C   0  0
    1.3461   -4.4669    0.0000 F   0  0
    7.7890   -3.3721    0.0000 C   0  0
    5.6018   -4.5613    0.0000 C   0  0
    7.0500   -4.5968    0.0000 C   0  0
    5.6020   -5.3875    0.0000 C   0  0
    6.3478   -4.1673    0.0000 N   0  0
    7.0303   -5.4215    0.0000 C   0  0
    6.3085   -5.8169    0.0000 N   0  0
    4.8758   -5.7828    0.0000 N   0  0
    7.7736   -4.2013    0.0000 C   0  0
    8.5501   -4.4702    0.0000 C   0  0
    9.0507   -3.8141    0.0000 N   0  0
    8.5802   -3.1403    0.0000 N   0  0
    8.7884   -5.2575    0.0000 C   0  0
    4.9558   -3.3235    0.0000 O   0  0
    4.2634   -2.0421    0.0000 N   0  0
    5.0031   -1.6423    0.0000 C   0  0
    3.5473   -1.6014    0.0000 C   0  0
    8.8592   -2.3470    0.0000 C   0  0
    3.7672   -5.2536    0.0000 C   0  0
 12  1  1  0
  1  2  1  0
  2  3  1  0
  3  4  2  0
  4  5  1  0
  5  6  2  0
  6  7  1  0
  7  8  2  0
  8  3  1  0
  4  9  1  0
  7 10  1  0
 14 12  1  0
 12 15  2  0
 15 13  1  0
 13 16  2  0
 16 17  1  0
 14 17  2  0
 14 18  1  0
 13 19  1  0
 11 19  2  0
 19 20  1  0
 20 21  2  0
 21 22  1  0
 22 11  1  0
 20 23  1  0
  9 24  2  0
  9 25  1  0
 25 26  1  0
 25 27  1  0
 26 11  1  0
 22 28  1  0
  2 29  1  6
M  END
> <From>
www.bindingDB.org

> <BindingDB Reactant_set_id>
50103659

> <Ligand InChI>
InChI=1S/C20H21FN6O2/c1-10-17-15-8-23-18(22)19(24-15)29-11(2)14-7-12(21)5-6-13(14)20(28)26(3)9-16(17)27(4)25-10/h5-8,11H,9H2,1-4H3,(H2,22,23)/t11-/m1/s1

> <Ligand InChI Key>
BOSKQVUEUWJLFT-LLVKDONJSA-N

> <BindingDB MonomerID>
50018833

> <BindingDB Ligand Name>
CHEMBL3286823

> <Target Name>
ALK tyrosine kinase receptor

> <Target Source Organism According to Curator or DataSource>
Homo sapiens

> <Ki (nM)>
 0.100000

> <IC50 (nM)>


> <Kd (nM)>


> <EC50 (nM)>


> <kon (M-1-s-1)>


> <koff (s-1)>


> <pH>


> <Temp C>


> <Curation/DataSource>
ChEMBL

> <Article DOI>
10.1021/jm500261q

> <BindingDB Entry DOI>
10.7270/Q2K35W68

> <PMID>
24819116

> <PubChem AID>


> <Patent Number>


> <Authors>
Johnson, TW; Richardson, PF; Bailey, S; Brooun, A; Burke, BJ; Collins, MR; Cui, JJ; Deal, JG; Deng, YL; Dinh, D; Engstrom, LD; He, M; Hoffman, J; Hoffman, RL; Huang, Q; Kania, RS; Kath, JC; Lam, H; Lam, JL; Le, PT; Lingardo, L; Liu, W; McTigue, M; Palmer, CL; Sach, NW; Smeal, T; Smith, GL; Stewart, AE; Timofeevski, S; Zhu, H; Zhu, J; Zou, HY; Edwards, MP

> <Date of publication>
6/12/2014

> <Date in BindingDB>
2/11/2015

> <Institution>
Pfizer Inc

> <Link to Ligand in BindingDB>
http://www.bindingdb.org/bind/chemsearch/marvin/MolStructure.jsp?monomerid=50018833

> <Link to Ligand-Target Pair in BindingDB>
http://www.bindingdb.org/jsp/dbsearch/PrimarySearch_ki.jsp?energyterm=kJ/mole&tag=pol&polymerid=5809&target=ALK+tyrosine+kinase+receptor&column=ki&startPg=0&Increment=50&submit=Search

> <Link to Ligand-Target Pair in BindingDB>
http://www.bindingdb.org/jsp/dbsearch/PrimarySearch_ki.jsp?energyterm=kJ/mole&tag=r21&monomerid=50018833&enzyme=ALK+tyrosine+kinase+receptor&column=ki&startPg=0&Increment=50&submit=Search

> <Ligand HET ID in PDB>


> <PDB ID(s) for Ligand-Target Complex>


> <PubChem CID of Ligand>
90644199

> <PubChem SID of Ligand>
103929886

> <ChEBI ID of Ligand>


> <ChEMBL ID of Ligand>
CHEMBL3286823

> <DrugBank ID of Ligand>


> <IUPHAR_GRAC ID of Ligand>


> <KEGG ID of Ligand>


> <ZINC ID of Ligand>
ZINC33891534

> <Number of Protein Chains in Target (bigger than 1 implies a multichain complex)>
1

> <BindingDB Target Chain Sequence>
MGAIGLLWLLPLLLSTAAVGSGMGTGQRAGSPAAGPPLQPREPLSYSRLQRKSLAVDFVVPSLFRVYARDLLLPPSSSELKAGRPEARGSLALDCAPLLRLLGPAPGVSWTAGSPAPAEARTLSRVLKGGSVRKLRRAKQLVLELGEEAILEGCVGPPGEAAVGLLQFNLSELFSWWIRQGEGRLRIRLMPEKKASEVGREGRLSAAIRASQPRLLFQIFGTGHSSLESPTNMPSPSPDYFTWNLTWIMKDSFPFLSHRSRYGLECSFDFPCELEYSPPLHDLRNQSWSWRRIPSEEASQMDLLDGPGAERSKEMPRGSFLLLNTSADSKHTILSPWMRSSSEHCTLAVSVHRHLQPSGRYIAQLLPHNEAAREILLMPTPGKHGWTVLQGRIGRPDNPFRVALEYISSGNRSLSAVDFFALKNCSEGTSPGSKMALQSSFTCWNGTVLQLGQACDFHQDCAQGEDESQMCRKLPVGFYCNFEDGFCGWTQGTLSPHTPQWQVRTLKDARFQDHQDHALLLSTTDVPASESATVTSATFPAPIKSSPCELRMSWLIRGVLRGNVSLVLVENKTGKEQGRMVWHVAAYEGLSLWQWMVLPLLDVSDRFWLQMVAWWGQGSRAIVAFDNISISLDCYLTISGEDKILQNTAPKSRNLFERNPNKELKPGENSPRQTPIFDPTVHWLFTTCGASGPHGPTQAQCNNAYQNSNLSVEVGSEGPLKGIQIWKVPATDTYSISGYGAAGGKGGKNTMMRSHGVSVLGIFNLEKDDMLYILVGQQGEDACPSTNQLIQKVCIGENNVIEEEIRVNRSVHEWAGGGGGGGGATYVFKMKDGVPVPLIIAAGGGGRAYGAKTDTFHPERLENNSSVLGLNGNSGAAGGGGGWNDNTSLLWAGKSLQEGATGGHSCPQAMKKWGWETRGGFGGGGGGCSSGGGGGGYIGGNAASNNDPEMDGEDGVSFISPLGILYTPALKVMEGHGEVNIKHYLNCSHCEVDECHMDPESHKVICFCDHGTVLAEDGVSCIVSPTPEPHLPLSLILSVVTSALVAALVLAFSGIMIVYRRKHQELQAMQMELQSPEYKLSKLRTSTIMTDYNPNYCFAGKTSSISDLKEVPRKNITLIRGLGHGAFGEVYEGQVSGMPNDPSPLQVAVKTLPEVCSEQDELDFLMEALIISKFNHQNIVRCIGVSLQSLPRFILLELMAGGDLKSFLRETRPRPSQPSSLAMLDLLHVARDIACGCQYLEENHFIHRDIAARNCLLTCPGPGRVAKIGDFGMARDIYRASYYRKGGCAMLPVKWMPPEAFMEGIFTSKTDTWSFGVLLWEIFSLGYMPYPSKSNQEVLEFVTSGGRMDPPKNCPGPVYRIMTQCWQHQPEDRPNFAIILERIEYCTQDPDVINTALPIEYGPLVEEEEKVPVRPKDPEGVPPLLVSQQAKREEERSPAAPPPLPTTSSGKAAKKPTAAEISVRVPRGPAVEGGHVNMAFSQSNPPSELHKVHGSRNKPTSLWNPTYGSWFTEKPTKKNNPIAKKEPHDRGNLGLEGSCTVPPNVATGRLPGASLLLEPSSLTANMKEVPLFRLRHFPCGNVNYGYQQQGLPLEAATAPGAGHYEDTILKSKNSMNQPGP

> <PDB ID(s) of Target Chain>
2XB7,2XBA,3AOX,5FTO,5FTQ,6E0R,6EBW,6EDL,6MX8,7JY4,7JYR,7JYS,7JYT,7LS0,7MZW,7MZY,7N00,7NX3,7NX4,8ARJ

> <UniProt (SwissProt) Recommended Name of Target Chain>
ALK tyrosine kinase receptor

> <UniProt (SwissProt) Entry Name of Target Chain>
ALK_HUMAN

> <UniProt (SwissProt) Primary ID of Target Chain>
Q9UM73

> <UniProt (SwissProt) Secondary ID(s) of Target Chain>
A6P4T4 A6P4V4 Q4ZFX9 Q53QQ6 Q53RZ4 Q59FI3 Q9Y4K6

> <UniProt (SwissProt) Alternative ID(s) of Target Chain>


> <UniProt (TrEMBL) Submitted Name of Target Chain>


> <UniProt (TrEMBL) Entry Name of Target Chain>


> <UniProt (TrEMBL) Primary ID of Target Chain>


> <UniProt (TrEMBL) Secondary ID(s) of Target Chain>


> <UniProt (TrEMBL) Alternative ID(s) of Target Chain>


$$$$

  SciTegic09261414532D

 30 33  0  0  0  0            999 V2000
    4.9144   -4.1325    0.0000 O   0  0
    4.1936   -4.5272    0.0000 C   0  0  1  0  0  0
    3.4882   -4.0984    0.0000 C   0  0
    3.5127   -3.2747    0.0000 C   0  0
    2.8082   -2.8460    0.0000 C   0  0
    2.0864   -3.2408    0.0000 C   0  0
    2.0694   -4.0688    0.0000 C   0  0
    2.7746   -4.4937    0.0000 C   0  0
    4.2390   -2.8822    0.0000 C   0  0
    1.3458   -4.4661    0.0000 F   0  0
    7.7877   -3.3715    0.0000 C   0  0
    5.6008   -4.5605    0.0000 C   0  0
    7.0487   -4.5960    0.0000 C   0  0
    5.6010   -5.3865    0.0000 C   0  0
    6.3467   -4.1665    0.0000 C   0  0
    7.0291   -5.4206    0.0000 C   0  0
    6.3074   -5.8159    0.0000 N   0  0
    4.8750   -5.7818    0.0000 N   0  0
    7.7722   -4.2006    0.0000 C   0  0
    8.5486   -4.4694    0.0000 C   0  0
    9.0491   -3.8134    0.0000 N   0  0
    8.5787   -3.1397    0.0000 N   0  0
    8.7869   -5.2566    0.0000 O   0  0
    4.9549   -3.3229    0.0000 O   0  0
    4.2626   -2.0417    0.0000 N   0  0
    5.0023   -1.6420    0.0000 C   0  0
    3.5466   -1.6011    0.0000 C   0  0
    8.8577   -2.3466    0.0000 C   0  0
    3.7665   -5.2527    0.0000 C   0  0
    8.2119   -5.8700    0.0000 C   0  0
 12  1  1  0
  1  2  1  0
  2  3  1  0
  3  4  2  0
  4  5  1  0
  5  6  2  0
  6  7  1  0
  7  8  2  0
  8  3  1  0
  4  9  1  0
  7 10  1  0
 14 12  1  0
 12 15  2  0
 15 13  1  0
 13 16  2  0
 16 17  1  0
 14 17  2  0
 14 18  1  0
 13 19  1  0
 11 19  2  0
 19 20  1  0
 20 21  2  0
 21 22  1  0
 22 11  1  0
 20 23  1  0
  9 24  2  0
  9 25  1  0
 25 26  1  0
 25 27  1  0
 26 11  1  0
 22 28  1  0
  2 29  1  6
 23 30  1  0
M  END
> <From>
www.bindingDB.org

> <BindingDB Reactant_set_id>
50103663

> <Ligand InChI>
InChI=1S/C21H22FN5O3/c1-11-15-8-13(22)5-6-14(15)21(28)26(2)10-16-18(20(29-4)25-27(16)3)12-7-17(30-11)19(23)24-9-12/h5-9,11H,10H2,1-4H3,(H2,23,24)/t11-/m1/s1

> <Ligand InChI Key>
WIMIQKULKCAFMS-LLVKDONJSA-N

> <BindingDB MonomerID>
50018835

> <BindingDB Ligand Name>
CHEMBL3286825

> <Target Name>
ALK tyrosine kinase receptor

> <Target Source Organism According to Curator or DataSource>
Homo sapiens

> <Ki (nM)>
 0.100000

> <IC50 (nM)>


> <Kd (nM)>


> <EC50 (nM)>


> <kon (M-1-s-1)>


> <koff (s-1)>


> <pH>


> <Temp C>


> <Curation/DataSource>
ChEMBL

> <Article DOI>
10.1021/jm500261q

> <BindingDB Entry DOI>
10.7270/Q2K35W68

> <PMID>
24819116

> <PubChem AID>


> <Patent Number>


> <Authors>
Johnson, TW; Richardson, PF; Bailey, S; Brooun, A; Burke, BJ; Collins, MR; Cui, JJ; Deal, JG; Deng, YL; Dinh, D; Engstrom, LD; He, M; Hoffman, J; Hoffman, RL; Huang, Q; Kania, RS; Kath, JC; Lam, H; Lam, JL; Le, PT; Lingardo, L; Liu, W; McTigue, M; Palmer, CL; Sach, NW; Smeal, T; Smith, GL; Stewart, AE; Timofeevski, S; Zhu, H; Zhu, J; Zou, HY; Edwards, MP

> <Date of publication>
6/12/2014

> <Date in BindingDB>
2/11/2015

> <Institution>
Pfizer Inc

> <Link to Ligand in BindingDB>
http://www.bindingdb.org/bind/chemsearch/marvin/MolStructure.jsp?monomerid=50018835

> <Link to Ligand-Target Pair in BindingDB>
http://www.bindingdb.org/jsp/dbsearch/PrimarySearch_ki.jsp?energyterm=kJ/mole&tag=pol&polymerid=5809&target=ALK+tyrosine+kinase+receptor&column=ki&startPg=0&Increment=50&submit=Search

> <Link to Ligand-Target Pair in BindingDB>
http://www.bindingdb.org/jsp/dbsearch/PrimarySearch_ki.jsp?energyterm=kJ/mole&tag=r21&monomerid=50018835&enzyme=ALK+tyrosine+kinase+receptor&column=ki&startPg=0&Increment=50&submit=Search

> <Ligand HET ID in PDB>


> <PDB ID(s) for Ligand-Target Complex>


> <PubChem CID of Ligand>
89807790

> <PubChem SID of Ligand>
103929888

> <ChEBI ID of Ligand>


> <ChEMBL ID of Ligand>
CHEMBL3286825

> <DrugBank ID of Ligand>


> <IUPHAR_GRAC ID of Ligand>


> <KEGG ID of Ligand>


> <ZINC ID of Ligand>
ZINC36080055

> <Number of Protein Chains in Target (bigger than 1 implies a multichain complex)>
1

> <BindingDB Target Chain Sequence>
MGAIGLLWLLPLLLSTAAVGSGMGTGQRAGSPAAGPPLQPREPLSYSRLQRKSLAVDFVVPSLFRVYARDLLLPPSSSELKAGRPEARGSLALDCAPLLRLLGPAPGVSWTAGSPAPAEARTLSRVLKGGSVRKLRRAKQLVLELGEEAILEGCVGPPGEAAVGLLQFNLSELFSWWIRQGEGRLRIRLMPEKKASEVGREGRLSAAIRASQPRLLFQIFGTGHSSLESPTNMPSPSPDYFTWNLTWIMKDSFPFLSHRSRYGLECSFDFPCELEYSPPLHDLRNQSWSWRRIPSEEASQMDLLDGPGAERSKEMPRGSFLLLNTSADSKHTILSPWMRSSSEHCTLAVSVHRHLQPSGRYIAQLLPHNEAAREILLMPTPGKHGWTVLQGRIGRPDNPFRVALEYISSGNRSLSAVDFFALKNCSEGTSPGSKMALQSSFTCWNGTVLQLGQACDFHQDCAQGEDESQMCRKLPVGFYCNFEDGFCGWTQGTLSPHTPQWQVRTLKDARFQDHQDHALLLSTTDVPASESATVTSATFPAPIKSSPCELRMSWLIRGVLRGNVSLVLVENKTGKEQGRMVWHVAAYEGLSLWQWMVLPLLDVSDRFWLQMVAWWGQGSRAIVAFDNISISLDCYLTISGEDKILQNTAPKSRNLFERNPNKELKPGENSPRQTPIFDPTVHWLFTTCGASGPHGPTQAQCNNAYQNSNLSVEVGSEGPLKGIQIWKVPATDTYSISGYGAAGGKGGKNTMMRSHGVSVLGIFNLEKDDMLYILVGQQGEDACPSTNQLIQKVCIGENNVIEEEIRVNRSVHEWAGGGGGGGGATYVFKMKDGVPVPLIIAAGGGGRAYGAKTDTFHPERLENNSSVLGLNGNSGAAGGGGGWNDNTSLLWAGKSLQEGATGGHSCPQAMKKWGWETRGGFGGGGGGCSSGGGGGGYIGGNAASNNDPEMDGEDGVSFISPLGILYTPALKVMEGHGEVNIKHYLNCSHCEVDECHMDPESHKVICFCDHGTVLAEDGVSCIVSPTPEPHLPLSLILSVVTSALVAALVLAFSGIMIVYRRKHQELQAMQMELQSPEYKLSKLRTSTIMTDYNPNYCFAGKTSSISDLKEVPRKNITLIRGLGHGAFGEVYEGQVSGMPNDPSPLQVAVKTLPEVCSEQDELDFLMEALIISKFNHQNIVRCIGVSLQSLPRFILLELMAGGDLKSFLRETRPRPSQPSSLAMLDLLHVARDIACGCQYLEENHFIHRDIAARNCLLTCPGPGRVAKIGDFGMARDIYRASYYRKGGCAMLPVKWMPPEAFMEGIFTSKTDTWSFGVLLWEIFSLGYMPYPSKSNQEVLEFVTSGGRMDPPKNCPGPVYRIMTQCWQHQPEDRPNFAIILERIEYCTQDPDVINTALPIEYGPLVEEEEKVPVRPKDPEGVPPLLVSQQAKREEERSPAAPPPLPTTSSGKAAKKPTAAEISVRVPRGPAVEGGHVNMAFSQSNPPSELHKVHGSRNKPTSLWNPTYGSWFTEKPTKKNNPIAKKEPHDRGNLGLEGSCTVPPNVATGRLPGASLLLEPSSLTANMKEVPLFRLRHFPCGNVNYGYQQQGLPLEAATAPGAGHYEDTILKSKNSMNQPGP

> <PDB ID(s) of Target Chain>
2XB7,2XBA,3AOX,5FTO,5FTQ,6E0R,6EBW,6EDL,6MX8,7JY4,7JYR,7JYS,7JYT,7LS0,7MZW,7MZY,7N00,7NX3,7NX4,8ARJ

> <UniProt (SwissProt) Recommended Name of Target Chain>
ALK tyrosine kinase receptor

> <UniProt (SwissProt) Entry Name of Target Chain>
ALK_HUMAN

> <UniProt (SwissProt) Primary ID of Target Chain>
Q9UM73

> <UniProt (SwissProt) Secondary ID(s) of Target Chain>
A6P4T4 A6P4V4 Q4ZFX9 Q53QQ6 Q53RZ4 Q59FI3 Q9Y4K6

> <UniProt (SwissProt) Alternative ID(s) of Target Chain>


> <UniProt (TrEMBL) Submitted Name of Target Chain>


> <UniProt (TrEMBL) Entry Name of Target Chain>


> <UniProt (TrEMBL) Primary ID of Target Chain>


> <UniProt (TrEMBL) Secondary ID(s) of Target Chain>


> <UniProt (TrEMBL) Alternative ID(s) of Target Chain>


$$$$

  SciTegic09261414532D

 31 35  0  0  0  0            999 V2000
   15.5368   -5.1482    0.0000 O   0  0
   14.8166   -5.5427    0.0000 C   0  0  1  0  0  0
   14.1117   -5.1142    0.0000 C   0  0
   14.1361   -4.2910    0.0000 C   0  0
   13.4320   -3.8625    0.0000 C   0  0
   12.7108   -4.2571    0.0000 C   0  0
   12.6937   -5.0845    0.0000 C   0  0
   13.3985   -5.5092    0.0000 C   0  0
   14.8619   -3.8987    0.0000 C   0  0
   11.9707   -5.4816    0.0000 F   0  0
   18.4083   -4.3878    0.0000 C   0  0
   16.2229   -5.5760    0.0000 C   0  0
   17.6699   -5.6114    0.0000 C   0  0
   16.2230   -6.4014    0.0000 C   0  0
   16.9682   -5.1822    0.0000 C   0  0
   17.6502   -6.4355    0.0000 C   0  0
   16.9290   -6.8306    0.0000 N   0  0
   15.4975   -6.7965    0.0000 N   0  0
   18.3929   -5.2162    0.0000 C   0  0
   19.1687   -5.4850    0.0000 C   0  0
   19.6688   -4.8293    0.0000 N   0  0
   19.1989   -4.1562    0.0000 N   0  0
   14.3982   -6.2549    0.0000 C   0  0
   15.5774   -4.3392    0.0000 O   0  0
   14.8856   -3.0589    0.0000 N   0  0
   15.6247   -2.6594    0.0000 C   0  0
   14.1700   -2.6184    0.0000 C   0  0
   19.4776   -3.3635    0.0000 C   0  0
   19.4113   -6.2894    0.0000 C   0  0
   19.2200   -7.1059    0.0000 C   0  0
   20.0245   -6.8634    0.0000 C   0  0
 12  1  1  0
  1  2  1  0
  2  3  1  0
  3  4  2  0
  4  5  1  0
  5  6  2  0
  6  7  1  0
  7  8  2  0
  8  3  1  0
  4  9  1  0
  7 10  1  0
 14 12  1  0
 12 15  2  0
 15 13  1  0
 13 16  2  0
 16 17  1  0
 14 17  2  0
 14 18  1  0
 13 19  1  0
 11 19  2  0
 19 20  1  0
 20 21  2  0
 21 22  1  0
 22 11  1  0
  2 23  1  6
  9 24  2  0
  9 25  1  0
 25 26  1  0
 25 27  1  0
 26 11  1  0
 22 28  1  0
 20 29  1  0
 30 29  1  0
 31 30  1  0
 29 31  1  0
M  END
> <From>
www.bindingDB.org

> <BindingDB Reactant_set_id>
50103671

> <Ligand InChI>
InChI=1S/C23H24FN5O2/c1-12-17-9-15(24)6-7-16(17)23(30)28(2)11-18-20(21(13-4-5-13)27-29(18)3)14-8-19(31-12)22(25)26-10-14/h6-10,12-13H,4-5,11H2,1-3H3,(H2,25,26)/t12-/m1/s1

> <Ligand InChI Key>
SBEYSILWLYDNSN-GFCCVEGCSA-N

> <BindingDB MonomerID>
50018839

> <BindingDB Ligand Name>
CHEMBL3286829

> <Target Name>
ALK tyrosine kinase receptor

> <Target Source Organism According to Curator or DataSource>
Homo sapiens

> <Ki (nM)>
<0.100000

> <IC50 (nM)>


> <Kd (nM)>


> <EC50 (nM)>


> <kon (M-1-s-1)>


> <koff (s-1)>


> <pH>


> <Temp C>


> <Curation/DataSource>
ChEMBL

> <Article DOI>
10.1021/jm500261q

> <BindingDB Entry DOI>
10.7270/Q2K35W68

> <PMID>
24819116

> <PubChem AID>


> <Patent Number>


> <Authors>
Johnson, TW; Richardson, PF; Bailey, S; Brooun, A; Burke, BJ; Collins, MR; Cui, JJ; Deal, JG; Deng, YL; Dinh, D; Engstrom, LD; He, M; Hoffman, J; Hoffman, RL; Huang, Q; Kania, RS; Kath, JC; Lam, H; Lam, JL; Le, PT; Lingardo, L; Liu, W; McTigue, M; Palmer, CL; Sach, NW; Smeal, T; Smith, GL; Stewart, AE; Timofeevski, S; Zhu, H; Zhu, J; Zou, HY; Edwards, MP

> <Date of publication>
6/12/2014

> <Date in BindingDB>
2/11/2015

> <Institution>
Pfizer Inc

> <Link to Ligand in BindingDB>
http://www.bindingdb.org/bind/chemsearch/marvin/MolStructure.jsp?monomerid=50018839

> <Link to Ligand-Target Pair in BindingDB>
http://www.bindingdb.org/jsp/dbsearch/PrimarySearch_ki.jsp?energyterm=kJ/mole&tag=pol&polymerid=5809&target=ALK+tyrosine+kinase+receptor&column=ki&startPg=0&Increment=50&submit=Search

> <Link to Ligand-Target Pair in BindingDB>
http://www.bindingdb.org/jsp/dbsearch/PrimarySearch_ki.jsp?energyterm=kJ/mole&tag=r21&monomerid=50018839&enzyme=ALK+tyrosine+kinase+receptor&column=ki&startPg=0&Increment=50&submit=Search

> <Ligand HET ID in PDB>
J99

> <PDB ID(s) for Ligand-Target Complex>
4CTC

> <PubChem CID of Ligand>
73819548

> <PubChem SID of Ligand>
103929892

> <ChEBI ID of Ligand>


> <ChEMBL ID of Ligand>
CHEMBL3286829

> <DrugBank ID of Ligand>


> <IUPHAR_GRAC ID of Ligand>


> <KEGG ID of Ligand>


> <ZINC ID of Ligand>
ZINC33891499

> <Number of Protein Chains in Target (bigger than 1 implies a multichain complex)>
1

> <BindingDB Target Chain Sequence>
MGAIGLLWLLPLLLSTAAVGSGMGTGQRAGSPAAGPPLQPREPLSYSRLQRKSLAVDFVVPSLFRVYARDLLLPPSSSELKAGRPEARGSLALDCAPLLRLLGPAPGVSWTAGSPAPAEARTLSRVLKGGSVRKLRRAKQLVLELGEEAILEGCVGPPGEAAVGLLQFNLSELFSWWIRQGEGRLRIRLMPEKKASEVGREGRLSAAIRASQPRLLFQIFGTGHSSLESPTNMPSPSPDYFTWNLTWIMKDSFPFLSHRSRYGLECSFDFPCELEYSPPLHDLRNQSWSWRRIPSEEASQMDLLDGPGAERSKEMPRGSFLLLNTSADSKHTILSPWMRSSSEHCTLAVSVHRHLQPSGRYIAQLLPHNEAAREILLMPTPGKHGWTVLQGRIGRPDNPFRVALEYISSGNRSLSAVDFFALKNCSEGTSPGSKMALQSSFTCWNGTVLQLGQACDFHQDCAQGEDESQMCRKLPVGFYCNFEDGFCGWTQGTLSPHTPQWQVRTLKDARFQDHQDHALLLSTTDVPASESATVTSATFPAPIKSSPCELRMSWLIRGVLRGNVSLVLVENKTGKEQGRMVWHVAAYEGLSLWQWMVLPLLDVSDRFWLQMVAWWGQGSRAIVAFDNISISLDCYLTISGEDKILQNTAPKSRNLFERNPNKELKPGENSPRQTPIFDPTVHWLFTTCGASGPHGPTQAQCNNAYQNSNLSVEVGSEGPLKGIQIWKVPATDTYSISGYGAAGGKGGKNTMMRSHGVSVLGIFNLEKDDMLYILVGQQGEDACPSTNQLIQKVCIGENNVIEEEIRVNRSVHEWAGGGGGGGGATYVFKMKDGVPVPLIIAAGGGGRAYGAKTDTFHPERLENNSSVLGLNGNSGAAGGGGGWNDNTSLLWAGKSLQEGATGGHSCPQAMKKWGWETRGGFGGGGGGCSSGGGGGGYIGGNAASNNDPEMDGEDGVSFISPLGILYTPALKVMEGHGEVNIKHYLNCSHCEVDECHMDPESHKVICFCDHGTVLAEDGVSCIVSPTPEPHLPLSLILSVVTSALVAALVLAFSGIMIVYRRKHQELQAMQMELQSPEYKLSKLRTSTIMTDYNPNYCFAGKTSSISDLKEVPRKNITLIRGLGHGAFGEVYEGQVSGMPNDPSPLQVAVKTLPEVCSEQDELDFLMEALIISKFNHQNIVRCIGVSLQSLPRFILLELMAGGDLKSFLRETRPRPSQPSSLAMLDLLHVARDIACGCQYLEENHFIHRDIAARNCLLTCPGPGRVAKIGDFGMARDIYRASYYRKGGCAMLPVKWMPPEAFMEGIFTSKTDTWSFGVLLWEIFSLGYMPYPSKSNQEVLEFVTSGGRMDPPKNCPGPVYRIMTQCWQHQPEDRPNFAIILERIEYCTQDPDVINTALPIEYGPLVEEEEKVPVRPKDPEGVPPLLVSQQAKREEERSPAAPPPLPTTSSGKAAKKPTAAEISVRVPRGPAVEGGHVNMAFSQSNPPSELHKVHGSRNKPTSLWNPTYGSWFTEKPTKKNNPIAKKEPHDRGNLGLEGSCTVPPNVATGRLPGASLLLEPSSLTANMKEVPLFRLRHFPCGNVNYGYQQQGLPLEAATAPGAGHYEDTILKSKNSMNQPGP

> <PDB ID(s) of Target Chain>
2XB7,2XBA,3AOX,5FTO,5FTQ,6E0R,6EBW,6EDL,6MX8,7JY4,7JYR,7JYS,7JYT,7LS0,7MZW,7MZY,7N00,7NX3,7NX4,8ARJ

> <UniProt (SwissProt) Recommended Name of Target Chain>
ALK tyrosine kinase receptor

> <UniProt (SwissProt) Entry Name of Target Chain>
ALK_HUMAN

> <UniProt (SwissProt) Primary ID of Target Chain>
Q9UM73

> <UniProt (SwissProt) Secondary ID(s) of Target Chain>
A6P4T4 A6P4V4 Q4ZFX9 Q53QQ6 Q53RZ4 Q59FI3 Q9Y4K6

> <UniProt (SwissProt) Alternative ID(s) of Target Chain>


> <UniProt (TrEMBL) Submitted Name of Target Chain>


> <UniProt (TrEMBL) Entry Name of Target Chain>


> <UniProt (TrEMBL) Primary ID of Target Chain>


> <UniProt (TrEMBL) Secondary ID(s) of Target Chain>


> <UniProt (TrEMBL) Alternative ID(s) of Target Chain>


$$$$

  SciTegic09261414532D

 32 35  0  0  0  0            999 V2000
    9.5141   -4.2540    0.0000 S   0  0
    9.0957   -4.9560    0.0000 O   0  0
    9.9128   -4.9674    0.0000 O   0  0
    4.6404   -3.7483    0.0000 O   0  0
    3.9398   -4.1320    0.0000 C   0  0  1  0  0  0
    3.2542   -3.7153    0.0000 C   0  0
    3.2780   -2.9146    0.0000 C   0  0
    2.5933   -2.4979    0.0000 C   0  0
    1.8917   -2.8817    0.0000 C   0  0
    1.8752   -3.6864    0.0000 C   0  0
    2.5606   -4.0994    0.0000 C   0  0
    3.9839   -2.5331    0.0000 C   0  0
    1.1719   -4.0726    0.0000 F   0  0
    5.3076   -4.1644    0.0000 C   0  0
    6.7149   -4.1988    0.0000 C   0  0
    5.3078   -4.9672    0.0000 C   0  0
    6.0325   -3.7814    0.0000 N   0  0
    6.6958   -5.0003    0.0000 C   0  0
    5.9943   -5.3846    0.0000 N   0  0
    4.6021   -5.3515    0.0000 N   0  0
    4.6798   -2.9615    0.0000 O   0  0
    4.0069   -1.7163    0.0000 N   0  0
    4.7258   -1.3277    0.0000 C   0  0
    3.3110   -1.2879    0.0000 C   0  0
    3.5247   -4.8371    0.0000 C   0  0
    7.4317   -3.0087    0.0000 C   0  0
    7.4181   -3.8145    0.0000 C   0  0
    8.1081   -4.2274    0.0000 C   0  0
    8.8122   -3.8356    0.0000 C   0  0
    8.8219   -3.0267    0.0000 C   0  0
    8.1313   -2.6174    0.0000 C   0  0
   10.2274   -3.8553    0.0000 C   0  0
  2  1  2  0
  1  3  2  0
 14  4  1  0
  4  5  1  0
  5  6  1  0
  6  7  2  0
  7  8  1  0
  8  9  2  0
  9 10  1  0
 10 11  2  0
 11  6  1  0
  7 12  1  0
 10 13  1  0
 16 14  1  0
 14 17  2  0
 17 15  1  0
 15 18  2  0
 18 19  1  0
 16 19  2  0
 16 20  1  0
 15 27  1  0
 12 21  2  0
 12 22  1  0
 22 23  1  0
 22 24  1  0
 23 26  1  0
  5 25  1  6
 26 27  2  0
 27 28  1  0
 28 29  2  0
 29 30  1  0
 30 31  2  0
 31 26  1  0
 29  1  1  0
  1 32  1  0
M  END
> <From>
www.bindingDB.org

> <BindingDB Reactant_set_id>
50103668

> <Ligand InChI>
InChI=1S/C22H21FN4O4S/c1-12-17-8-14(23)5-7-16(17)22(28)27(2)11-13-4-6-15(32(3,29)30)9-18(13)19-10-25-20(24)21(26-19)31-12/h4-10,12H,11H2,1-3H3,(H2,24,25)/t12-/m1/s1

> <Ligand InChI Key>
YNONWHZLPLWALE-GFCCVEGCSA-N

> <BindingDB MonomerID>
50018838

> <BindingDB Ligand Name>
CHEMBL3286828

> <Target Name>
ALK tyrosine kinase receptor

> <Target Source Organism According to Curator or DataSource>
Homo sapiens

> <Ki (nM)>
 0.120000

> <IC50 (nM)>


> <Kd (nM)>


> <EC50 (nM)>


> <kon (M-1-s-1)>


> <koff (s-1)>


> <pH>


> <Temp C>


> <Curation/DataSource>
ChEMBL

> <Article DOI>
10.1021/jm500261q

> <BindingDB Entry DOI>
10.7270/Q2K35W68

> <PMID>
24819116

> <PubChem AID>


> <Patent Number>


> <Authors>
Johnson, TW; Richardson, PF; Bailey, S; Brooun, A; Burke, BJ; Collins, MR; Cui, JJ; Deal, JG; Deng, YL; Dinh, D; Engstrom, LD; He, M; Hoffman, J; Hoffman, RL; Huang, Q; Kania, RS; Kath, JC; Lam, H; Lam, JL; Le, PT; Lingardo, L; Liu, W; McTigue, M; Palmer, CL; Sach, NW; Smeal, T; Smith, GL; Stewart, AE; Timofeevski, S; Zhu, H; Zhu, J; Zou, HY; Edwards, MP

> <Date of publication>
6/12/2014

> <Date in BindingDB>
2/11/2015

> <Institution>
Pfizer Inc

> <Link to Ligand in BindingDB>
http://www.bindingdb.org/bind/chemsearch/marvin/MolStructure.jsp?monomerid=50018838

> <Link to Ligand-Target Pair in BindingDB>
http://www.bindingdb.org/jsp/dbsearch/PrimarySearch_ki.jsp?energyterm=kJ/mole&tag=pol&polymerid=5809&target=ALK+tyrosine+kinase+receptor&column=ki&startPg=0&Increment=50&submit=Search

> <Link to Ligand-Target Pair in BindingDB>
http://www.bindingdb.org/jsp/dbsearch/PrimarySearch_ki.jsp?energyterm=kJ/mole&tag=r21&monomerid=50018838&enzyme=ALK+tyrosine+kinase+receptor&column=ki&startPg=0&Increment=50&submit=Search

> <Ligand HET ID in PDB>


> <PDB ID(s) for Ligand-Target Complex>


> <PubChem CID of Ligand>
90644202

> <PubChem SID of Ligand>
103929891

> <ChEBI ID of Ligand>


> <ChEMBL ID of Ligand>
CHEMBL3286828

> <DrugBank ID of Ligand>


> <IUPHAR_GRAC ID of Ligand>


> <KEGG ID of Ligand>


> <ZINC ID of Ligand>
ZINC36080040

> <Number of Protein Chains in Target (bigger than 1 implies a multichain complex)>
1

> <BindingDB Target Chain Sequence>
MGAIGLLWLLPLLLSTAAVGSGMGTGQRAGSPAAGPPLQPREPLSYSRLQRKSLAVDFVVPSLFRVYARDLLLPPSSSELKAGRPEARGSLALDCAPLLRLLGPAPGVSWTAGSPAPAEARTLSRVLKGGSVRKLRRAKQLVLELGEEAILEGCVGPPGEAAVGLLQFNLSELFSWWIRQGEGRLRIRLMPEKKASEVGREGRLSAAIRASQPRLLFQIFGTGHSSLESPTNMPSPSPDYFTWNLTWIMKDSFPFLSHRSRYGLECSFDFPCELEYSPPLHDLRNQSWSWRRIPSEEASQMDLLDGPGAERSKEMPRGSFLLLNTSADSKHTILSPWMRSSSEHCTLAVSVHRHLQPSGRYIAQLLPHNEAAREILLMPTPGKHGWTVLQGRIGRPDNPFRVALEYISSGNRSLSAVDFFALKNCSEGTSPGSKMALQSSFTCWNGTVLQLGQACDFHQDCAQGEDESQMCRKLPVGFYCNFEDGFCGWTQGTLSPHTPQWQVRTLKDARFQDHQDHALLLSTTDVPASESATVTSATFPAPIKSSPCELRMSWLIRGVLRGNVSLVLVENKTGKEQGRMVWHVAAYEGLSLWQWMVLPLLDVSDRFWLQMVAWWGQGSRAIVAFDNISISLDCYLTISGEDKILQNTAPKSRNLFERNPNKELKPGENSPRQTPIFDPTVHWLFTTCGASGPHGPTQAQCNNAYQNSNLSVEVGSEGPLKGIQIWKVPATDTYSISGYGAAGGKGGKNTMMRSHGVSVLGIFNLEKDDMLYILVGQQGEDACPSTNQLIQKVCIGENNVIEEEIRVNRSVHEWAGGGGGGGGATYVFKMKDGVPVPLIIAAGGGGRAYGAKTDTFHPERLENNSSVLGLNGNSGAAGGGGGWNDNTSLLWAGKSLQEGATGGHSCPQAMKKWGWETRGGFGGGGGGCSSGGGGGGYIGGNAASNNDPEMDGEDGVSFISPLGILYTPALKVMEGHGEVNIKHYLNCSHCEVDECHMDPESHKVICFCDHGTVLAEDGVSCIVSPTPEPHLPLSLILSVVTSALVAALVLAFSGIMIVYRRKHQELQAMQMELQSPEYKLSKLRTSTIMTDYNPNYCFAGKTSSISDLKEVPRKNITLIRGLGHGAFGEVYEGQVSGMPNDPSPLQVAVKTLPEVCSEQDELDFLMEALIISKFNHQNIVRCIGVSLQSLPRFILLELMAGGDLKSFLRETRPRPSQPSSLAMLDLLHVARDIACGCQYLEENHFIHRDIAARNCLLTCPGPGRVAKIGDFGMARDIYRASYYRKGGCAMLPVKWMPPEAFMEGIFTSKTDTWSFGVLLWEIFSLGYMPYPSKSNQEVLEFVTSGGRMDPPKNCPGPVYRIMTQCWQHQPEDRPNFAIILERIEYCTQDPDVINTALPIEYGPLVEEEEKVPVRPKDPEGVPPLLVSQQAKREEERSPAAPPPLPTTSSGKAAKKPTAAEISVRVPRGPAVEGGHVNMAFSQSNPPSELHKVHGSRNKPTSLWNPTYGSWFTEKPTKKNNPIAKKEPHDRGNLGLEGSCTVPPNVATGRLPGASLLLEPSSLTANMKEVPLFRLRHFPCGNVNYGYQQQGLPLEAATAPGAGHYEDTILKSKNSMNQPGP

> <PDB ID(s) of Target Chain>
2XB7,2XBA,3AOX,5FTO,5FTQ,6E0R,6EBW,6EDL,6MX8,7JY4,7JYR,7JYS,7JYT,7LS0,7MZW,7MZY,7N00,7NX3,7NX4,8ARJ

> <UniProt (SwissProt) Recommended Name of Target Chain>
ALK tyrosine kinase receptor

> <UniProt (SwissProt) Entry Name of Target Chain>
ALK_HUMAN

> <UniProt (SwissProt) Primary ID of Target Chain>
Q9UM73

> <UniProt (SwissProt) Secondary ID(s) of Target Chain>
A6P4T4 A6P4V4 Q4ZFX9 Q53QQ6 Q53RZ4 Q59FI3 Q9Y4K6

> <UniProt (SwissProt) Alternative ID(s) of Target Chain>


> <UniProt (TrEMBL) Submitted Name of Target Chain>


> <UniProt (TrEMBL) Entry Name of Target Chain>


> <UniProt (TrEMBL) Primary ID of Target Chain>


> <UniProt (TrEMBL) Secondary ID(s) of Target Chain>


> <UniProt (TrEMBL) Alternative ID(s) of Target Chain>


$$$$

  SciTegic05061409512D

 29 32  0  0  0  0            999 V2000
    8.5664  -15.1907    0.0000 C   0  0
    8.5664  -14.3657    0.0000 C   0  0
    9.2808  -13.9532    0.0000 C   0  0
    9.9953  -14.3657    0.0000 C   0  0
    9.9953  -15.1907    0.0000 C   0  0
    9.2808  -15.6032    0.0000 N   0  0
    7.8519  -15.6032    0.0000 N   0  0
    7.8519  -13.9532    0.0000 O   0  0
    7.1374  -14.3657    0.0000 C   0  0  2  0  0  0
    7.1374  -15.1907    0.0000 C   0  0
    6.4230  -13.9532    0.0000 C   0  0
    5.7085  -14.3657    0.0000 C   0  0
    4.9940  -13.9532    0.0000 C   0  0
    4.9940  -13.1282    0.0000 C   0  0
    5.7085  -12.7157    0.0000 C   0  0
    6.4230  -13.1282    0.0000 C   0  0
    5.0410  -15.6756    0.0000 N   0  0
    5.7085  -15.1907    0.0000 N   0  0
    6.3759  -15.6756    0.0000 N   0  0
    6.1210  -16.4602    0.0000 C   0  0
    5.2960  -16.4602    0.0000 C   0  0
    5.7085  -11.8907    0.0000 F   0  0
   11.6030  -12.9612    0.0000 N   0  0
   12.0155  -13.6756    0.0000 N   0  0
   11.4635  -14.2887    0.0000 C   0  0
   10.7098  -13.9532    0.0000 C   0  0
   10.7960  -13.1327    0.0000 C   0  0
   11.6350  -15.0957    0.0000 C   0  0
   11.9385  -12.2075    0.0000 C   0  0
  1  2  1  0
  2  3  2  0
  3  4  1  0
  4  5  2  0
  5  6  1  0
  1  6  2  0
  1  7  1  0
  9 10  1  6
  8  9  1  0
 11 12  1  0
 12 13  2  0
 13 14  1  0
 14 15  2  0
 15 16  1  0
 11 16  2  0
 17 18  1  0
 18 19  1  0
 19 20  2  0
 20 21  1  0
 17 21  2  0
 12 18  1  0
 15 22  1  0
  9 11  1  0
  2  8  1  0
 23 24  1  0
 24 25  2  0
 25 26  1  0
 26 27  2  0
 23 27  1  0
 25 28  1  0
 23 29  1  0
  4 26  1  0
M  END
> <From>
www.bindingDB.org

> <BindingDB Reactant_set_id>
50103517

> <Ligand InChI>
InChI=1S/C20H20FN7O/c1-12-17(11-27(3)26-12)14-8-19(20(22)23-10-14)29-13(2)16-9-15(21)4-5-18(16)28-24-6-7-25-28/h4-11,13H,1-3H3,(H2,22,23)/t13-/m1/s1

> <Ligand InChI Key>
RZEJOJRZSRSZQC-CYBMUJFWSA-N

> <BindingDB MonomerID>
50018818

> <BindingDB Ligand Name>
CHEMBL3128075

> <Target Name>
ALK tyrosine kinase receptor

> <Target Source Organism According to Curator or DataSource>
Homo sapiens

> <Ki (nM)>
<0.200000

> <IC50 (nM)>


> <Kd (nM)>


> <EC50 (nM)>


> <kon (M-1-s-1)>


> <koff (s-1)>


> <pH>


> <Temp C>


> <Curation/DataSource>
ChEMBL

> <Article DOI>
10.1021/jm500261q

> <BindingDB Entry DOI>
10.7270/Q2K35W68

> <PMID>
24819116

> <PubChem AID>


> <Patent Number>


> <Authors>
Johnson, TW; Richardson, PF; Bailey, S; Brooun, A; Burke, BJ; Collins, MR; Cui, JJ; Deal, JG; Deng, YL; Dinh, D; Engstrom, LD; He, M; Hoffman, J; Hoffman, RL; Huang, Q; Kania, RS; Kath, JC; Lam, H; Lam, JL; Le, PT; Lingardo, L; Liu, W; McTigue, M; Palmer, CL; Sach, NW; Smeal, T; Smith, GL; Stewart, AE; Timofeevski, S; Zhu, H; Zhu, J; Zou, HY; Edwards, MP

> <Date of publication>
6/12/2014

> <Date in BindingDB>
2/11/2015

> <Institution>
Pfizer Inc

> <Link to Ligand in BindingDB>
http://www.bindingdb.org/bind/chemsearch/marvin/MolStructure.jsp?monomerid=50018818

> <Link to Ligand-Target Pair in BindingDB>
http://www.bindingdb.org/jsp/dbsearch/PrimarySearch_ki.jsp?energyterm=kJ/mole&tag=pol&polymerid=5809&target=ALK+tyrosine+kinase+receptor&column=ki&startPg=0&Increment=50&submit=Search

> <Link to Ligand-Target Pair in BindingDB>
http://www.bindingdb.org/jsp/dbsearch/PrimarySearch_ki.jsp?energyterm=kJ/mole&tag=r21&monomerid=50018818&enzyme=ALK+tyrosine+kinase+receptor&column=ki&startPg=0&Increment=50&submit=Search

> <Ligand HET ID in PDB>


> <PDB ID(s) for Ligand-Target Complex>


> <PubChem CID of Ligand>
76311144

> <PubChem SID of Ligand>
103929871

> <ChEBI ID of Ligand>


> <ChEMBL ID of Ligand>
CHEMBL3128075

> <DrugBank ID of Ligand>


> <IUPHAR_GRAC ID of Ligand>


> <KEGG ID of Ligand>


> <ZINC ID of Ligand>
ZINC33891495

> <Number of Protein Chains in Target (bigger than 1 implies a multichain complex)>
1

> <BindingDB Target Chain Sequence>
MGAIGLLWLLPLLLSTAAVGSGMGTGQRAGSPAAGPPLQPREPLSYSRLQRKSLAVDFVVPSLFRVYARDLLLPPSSSELKAGRPEARGSLALDCAPLLRLLGPAPGVSWTAGSPAPAEARTLSRVLKGGSVRKLRRAKQLVLELGEEAILEGCVGPPGEAAVGLLQFNLSELFSWWIRQGEGRLRIRLMPEKKASEVGREGRLSAAIRASQPRLLFQIFGTGHSSLESPTNMPSPSPDYFTWNLTWIMKDSFPFLSHRSRYGLECSFDFPCELEYSPPLHDLRNQSWSWRRIPSEEASQMDLLDGPGAERSKEMPRGSFLLLNTSADSKHTILSPWMRSSSEHCTLAVSVHRHLQPSGRYIAQLLPHNEAAREILLMPTPGKHGWTVLQGRIGRPDNPFRVALEYISSGNRSLSAVDFFALKNCSEGTSPGSKMALQSSFTCWNGTVLQLGQACDFHQDCAQGEDESQMCRKLPVGFYCNFEDGFCGWTQGTLSPHTPQWQVRTLKDARFQDHQDHALLLSTTDVPASESATVTSATFPAPIKSSPCELRMSWLIRGVLRGNVSLVLVENKTGKEQGRMVWHVAAYEGLSLWQWMVLPLLDVSDRFWLQMVAWWGQGSRAIVAFDNISISLDCYLTISGEDKILQNTAPKSRNLFERNPNKELKPGENSPRQTPIFDPTVHWLFTTCGASGPHGPTQAQCNNAYQNSNLSVEVGSEGPLKGIQIWKVPATDTYSISGYGAAGGKGGKNTMMRSHGVSVLGIFNLEKDDMLYILVGQQGEDACPSTNQLIQKVCIGENNVIEEEIRVNRSVHEWAGGGGGGGGATYVFKMKDGVPVPLIIAAGGGGRAYGAKTDTFHPERLENNSSVLGLNGNSGAAGGGGGWNDNTSLLWAGKSLQEGATGGHSCPQAMKKWGWETRGGFGGGGGGCSSGGGGGGYIGGNAASNNDPEMDGEDGVSFISPLGILYTPALKVMEGHGEVNIKHYLNCSHCEVDECHMDPESHKVICFCDHGTVLAEDGVSCIVSPTPEPHLPLSLILSVVTSALVAALVLAFSGIMIVYRRKHQELQAMQMELQSPEYKLSKLRTSTIMTDYNPNYCFAGKTSSISDLKEVPRKNITLIRGLGHGAFGEVYEGQVSGMPNDPSPLQVAVKTLPEVCSEQDELDFLMEALIISKFNHQNIVRCIGVSLQSLPRFILLELMAGGDLKSFLRETRPRPSQPSSLAMLDLLHVARDIACGCQYLEENHFIHRDIAARNCLLTCPGPGRVAKIGDFGMARDIYRASYYRKGGCAMLPVKWMPPEAFMEGIFTSKTDTWSFGVLLWEIFSLGYMPYPSKSNQEVLEFVTSGGRMDPPKNCPGPVYRIMTQCWQHQPEDRPNFAIILERIEYCTQDPDVINTALPIEYGPLVEEEEKVPVRPKDPEGVPPLLVSQQAKREEERSPAAPPPLPTTSSGKAAKKPTAAEISVRVPRGPAVEGGHVNMAFSQSNPPSELHKVHGSRNKPTSLWNPTYGSWFTEKPTKKNNPIAKKEPHDRGNLGLEGSCTVPPNVATGRLPGASLLLEPSSLTANMKEVPLFRLRHFPCGNVNYGYQQQGLPLEAATAPGAGHYEDTILKSKNSMNQPGP

> <PDB ID(s) of Target Chain>
2XB7,2XBA,3AOX,5FTO,5FTQ,6E0R,6EBW,6EDL,6MX8,7JY4,7JYR,7JYS,7JYT,7LS0,7MZW,7MZY,7N00,7NX3,7NX4,8ARJ

> <UniProt (SwissProt) Recommended Name of Target Chain>
ALK tyrosine kinase receptor

> <UniProt (SwissProt) Entry Name of Target Chain>
ALK_HUMAN

> <UniProt (SwissProt) Primary ID of Target Chain>
Q9UM73

> <UniProt (SwissProt) Secondary ID(s) of Target Chain>
A6P4T4 A6P4V4 Q4ZFX9 Q53QQ6 Q53RZ4 Q59FI3 Q9Y4K6

> <UniProt (SwissProt) Alternative ID(s) of Target Chain>


> <UniProt (TrEMBL) Submitted Name of Target Chain>


> <UniProt (TrEMBL) Entry Name of Target Chain>


> <UniProt (TrEMBL) Primary ID of Target Chain>


> <UniProt (TrEMBL) Secondary ID(s) of Target Chain>


> <UniProt (TrEMBL) Alternative ID(s) of Target Chain>


$$$$

  SciTegic09261414532D

 30 33  0  0  0  0            999 V2000
   22.0185  -11.1211    0.0000 C   0  0
   21.2964  -11.5122    0.0000 C   0  0
   19.8604  -12.2972    0.0000 C   0  0
   19.8795  -11.4791    0.0000 C   0  0
   20.5975  -11.0866    0.0000 N   0  0
   21.2773  -12.3303    0.0000 C   0  0
   20.5593  -12.7228    0.0000 N   0  0
   19.1423  -12.6897    0.0000 N   0  0
   19.1806  -11.0535    0.0000 O   0  0
   19.1999  -10.2352    0.0000 C   0  0  2  0  0  0
   19.9373   -9.8811    0.0000 C   0  0
   18.4972   -9.8159    0.0000 C   0  0
   17.7828  -10.2148    0.0000 C   0  0
   17.0800   -9.7956    0.0000 C   0  0
   17.0918   -8.9774    0.0000 C   0  0
   17.8063   -8.5784    0.0000 C   0  0
   18.5090   -8.9977    0.0000 C   0  0
   16.3656  -10.1945    0.0000 F   0  0
   19.2225   -8.5993    0.0000 N   0  0
   19.9613   -8.9433    0.0000 N   0  0
   20.5168   -8.3439    0.0000 C   0  0
   20.1184   -7.6303    0.0000 C   0  0
   19.3167   -7.7889    0.0000 N   0  0
   22.7158  -11.5524    0.0000 C   0  0
   23.4374  -11.1620    0.0000 N   0  0
   23.4602  -10.3402    0.0000 C   0  0
   22.7555   -9.9105    0.0000 C   0  0
   22.0368  -10.3033    0.0000 C   0  0
   22.6921  -12.3693    0.0000 O   0  0
   21.9729  -12.7572    0.0000 C   0  0
  2  1  1  0
  3  4  1  0
  4  5  2  0
  5  2  1  0
  2  6  2  0
  6  7  1  0
  3  7  2  0
  3  8  1  0
 10 11  1  1
  9 10  1  0
 12 13  1  0
 13 14  2  0
 14 15  1  0
 15 16  2  0
 16 17  1  0
 12 17  2  0
 14 18  1  0
 10 12  1  0
  4  9  1  0
 17 19  1  0
 19 20  1  0
 20 21  2  0
 21 22  1  0
 22 23  2  0
 23 19  1  0
  1 24  2  0
 24 25  1  0
 25 26  2  0
 26 27  1  0
 27 28  2  0
 28  1  1  0
 24 29  1  0
 29 30  1  0
M  END
> <From>
www.bindingDB.org

> <BindingDB Reactant_set_id>
50103523

> <Ligand InChI>
InChI=1S/C20H18FN7O2/c1-12(15-10-13(21)5-6-17(15)28-25-8-9-26-28)30-20-18(22)24-11-16(27-20)14-4-3-7-23-19(14)29-2/h3-12H,1-2H3,(H2,22,24)/t12-/m1/s1

> <Ligand InChI Key>
RXGKFHNEIKQBGI-GFCCVEGCSA-N

> <BindingDB MonomerID>
50018821

> <BindingDB Ligand Name>
CHEMBL3286811

> <Target Name>
ALK tyrosine kinase receptor

> <Target Source Organism According to Curator or DataSource>
Homo sapiens

> <Ki (nM)>
<0.200000

> <IC50 (nM)>


> <Kd (nM)>


> <EC50 (nM)>


> <kon (M-1-s-1)>


> <koff (s-1)>


> <pH>


> <Temp C>


> <Curation/DataSource>
ChEMBL

> <Article DOI>
10.1021/jm500261q

> <BindingDB Entry DOI>
10.7270/Q2K35W68

> <PMID>
24819116

> <PubChem AID>


> <Patent Number>


> <Authors>
Johnson, TW; Richardson, PF; Bailey, S; Brooun, A; Burke, BJ; Collins, MR; Cui, JJ; Deal, JG; Deng, YL; Dinh, D; Engstrom, LD; He, M; Hoffman, J; Hoffman, RL; Huang, Q; Kania, RS; Kath, JC; Lam, H; Lam, JL; Le, PT; Lingardo, L; Liu, W; McTigue, M; Palmer, CL; Sach, NW; Smeal, T; Smith, GL; Stewart, AE; Timofeevski, S; Zhu, H; Zhu, J; Zou, HY; Edwards, MP

> <Date of publication>
6/12/2014

> <Date in BindingDB>
2/11/2015

> <Institution>
Pfizer Inc

> <Link to Ligand in BindingDB>
http://www.bindingdb.org/bind/chemsearch/marvin/MolStructure.jsp?monomerid=50018821

> <Link to Ligand-Target Pair in BindingDB>
http://www.bindingdb.org/jsp/dbsearch/PrimarySearch_ki.jsp?energyterm=kJ/mole&tag=pol&polymerid=5809&target=ALK+tyrosine+kinase+receptor&column=ki&startPg=0&Increment=50&submit=Search

> <Link to Ligand-Target Pair in BindingDB>
http://www.bindingdb.org/jsp/dbsearch/PrimarySearch_ki.jsp?energyterm=kJ/mole&tag=r21&monomerid=50018821&enzyme=ALK+tyrosine+kinase+receptor&column=ki&startPg=0&Increment=50&submit=Search

> <Ligand HET ID in PDB>


> <PDB ID(s) for Ligand-Target Complex>


> <PubChem CID of Ligand>
89713230

> <PubChem SID of Ligand>
103929874

> <ChEBI ID of Ligand>


> <ChEMBL ID of Ligand>
CHEMBL3286811

> <DrugBank ID of Ligand>


> <IUPHAR_GRAC ID of Ligand>


> <KEGG ID of Ligand>


> <ZINC ID of Ligand>
ZINC33891536

> <Number of Protein Chains in Target (bigger than 1 implies a multichain complex)>
1

> <BindingDB Target Chain Sequence>
MGAIGLLWLLPLLLSTAAVGSGMGTGQRAGSPAAGPPLQPREPLSYSRLQRKSLAVDFVVPSLFRVYARDLLLPPSSSELKAGRPEARGSLALDCAPLLRLLGPAPGVSWTAGSPAPAEARTLSRVLKGGSVRKLRRAKQLVLELGEEAILEGCVGPPGEAAVGLLQFNLSELFSWWIRQGEGRLRIRLMPEKKASEVGREGRLSAAIRASQPRLLFQIFGTGHSSLESPTNMPSPSPDYFTWNLTWIMKDSFPFLSHRSRYGLECSFDFPCELEYSPPLHDLRNQSWSWRRIPSEEASQMDLLDGPGAERSKEMPRGSFLLLNTSADSKHTILSPWMRSSSEHCTLAVSVHRHLQPSGRYIAQLLPHNEAAREILLMPTPGKHGWTVLQGRIGRPDNPFRVALEYISSGNRSLSAVDFFALKNCSEGTSPGSKMALQSSFTCWNGTVLQLGQACDFHQDCAQGEDESQMCRKLPVGFYCNFEDGFCGWTQGTLSPHTPQWQVRTLKDARFQDHQDHALLLSTTDVPASESATVTSATFPAPIKSSPCELRMSWLIRGVLRGNVSLVLVENKTGKEQGRMVWHVAAYEGLSLWQWMVLPLLDVSDRFWLQMVAWWGQGSRAIVAFDNISISLDCYLTISGEDKILQNTAPKSRNLFERNPNKELKPGENSPRQTPIFDPTVHWLFTTCGASGPHGPTQAQCNNAYQNSNLSVEVGSEGPLKGIQIWKVPATDTYSISGYGAAGGKGGKNTMMRSHGVSVLGIFNLEKDDMLYILVGQQGEDACPSTNQLIQKVCIGENNVIEEEIRVNRSVHEWAGGGGGGGGATYVFKMKDGVPVPLIIAAGGGGRAYGAKTDTFHPERLENNSSVLGLNGNSGAAGGGGGWNDNTSLLWAGKSLQEGATGGHSCPQAMKKWGWETRGGFGGGGGGCSSGGGGGGYIGGNAASNNDPEMDGEDGVSFISPLGILYTPALKVMEGHGEVNIKHYLNCSHCEVDECHMDPESHKVICFCDHGTVLAEDGVSCIVSPTPEPHLPLSLILSVVTSALVAALVLAFSGIMIVYRRKHQELQAMQMELQSPEYKLSKLRTSTIMTDYNPNYCFAGKTSSISDLKEVPRKNITLIRGLGHGAFGEVYEGQVSGMPNDPSPLQVAVKTLPEVCSEQDELDFLMEALIISKFNHQNIVRCIGVSLQSLPRFILLELMAGGDLKSFLRETRPRPSQPSSLAMLDLLHVARDIACGCQYLEENHFIHRDIAARNCLLTCPGPGRVAKIGDFGMARDIYRASYYRKGGCAMLPVKWMPPEAFMEGIFTSKTDTWSFGVLLWEIFSLGYMPYPSKSNQEVLEFVTSGGRMDPPKNCPGPVYRIMTQCWQHQPEDRPNFAIILERIEYCTQDPDVINTALPIEYGPLVEEEEKVPVRPKDPEGVPPLLVSQQAKREEERSPAAPPPLPTTSSGKAAKKPTAAEISVRVPRGPAVEGGHVNMAFSQSNPPSELHKVHGSRNKPTSLWNPTYGSWFTEKPTKKNNPIAKKEPHDRGNLGLEGSCTVPPNVATGRLPGASLLLEPSSLTANMKEVPLFRLRHFPCGNVNYGYQQQGLPLEAATAPGAGHYEDTILKSKNSMNQPGP

> <PDB ID(s) of Target Chain>
2XB7,2XBA,3AOX,5FTO,5FTQ,6E0R,6EBW,6EDL,6MX8,7JY4,7JYR,7JYS,7JYT,7LS0,7MZW,7MZY,7N00,7NX3,7NX4,8ARJ

> <UniProt (SwissProt) Recommended Name of Target Chain>
ALK tyrosine kinase receptor

> <UniProt (SwissProt) Entry Name of Target Chain>
ALK_HUMAN

> <UniProt (SwissProt) Primary ID of Target Chain>
Q9UM73

> <UniProt (SwissProt) Secondary ID(s) of Target Chain>
A6P4T4 A6P4V4 Q4ZFX9 Q53QQ6 Q53RZ4 Q59FI3 Q9Y4K6

> <UniProt (SwissProt) Alternative ID(s) of Target Chain>


> <UniProt (TrEMBL) Submitted Name of Target Chain>


> <UniProt (TrEMBL) Entry Name of Target Chain>


> <UniProt (TrEMBL) Primary ID of Target Chain>


> <UniProt (TrEMBL) Secondary ID(s) of Target Chain>


> <UniProt (TrEMBL) Alternative ID(s) of Target Chain>


$$$$

  SciTegic09261414532D

 32 35  0  0  0  0            999 V2000
    8.1893   -5.2576    0.0000 S   0  0
    7.7640   -5.9554    0.0000 O   0  0
    8.5809   -5.9749    0.0000 O   0  0
    5.3612   -5.1893    0.0000 C   0  0
    3.9251   -5.9743    0.0000 C   0  0
    3.9443   -5.1562    0.0000 C   0  0
    4.6623   -4.7637    0.0000 C   0  0
    5.3421   -6.0074    0.0000 C   0  0
    4.6241   -6.3999    0.0000 N   0  0
    3.2071   -6.3668    0.0000 N   0  0
    3.2453   -4.7306    0.0000 O   0  0
    3.2647   -3.9123    0.0000 C   0  0  2  0  0  0
    4.0021   -3.5582    0.0000 C   0  0
    2.5620   -3.4930    0.0000 C   0  0
    1.8475   -3.8919    0.0000 C   0  0
    1.1448   -3.4727    0.0000 C   0  0
    1.1566   -2.6544    0.0000 C   0  0
    1.8710   -2.2555    0.0000 C   0  0
    2.5737   -2.6748    0.0000 C   0  0
    0.4303   -3.8716    0.0000 F   0  0
    3.2872   -2.2764    0.0000 N   0  0
    4.0261   -2.6204    0.0000 N   0  0
    4.5816   -2.0210    0.0000 C   0  0
    4.1831   -1.3074    0.0000 C   0  0
    3.3815   -1.4660    0.0000 N   0  0
    6.0768   -4.7968    0.0000 C   0  0
    6.7750   -5.2235    0.0000 C   0  0
    7.4916   -4.8322    0.0000 C   0  0
    7.5111   -4.0144    0.0000 C   0  0
    6.8082   -3.5894    0.0000 C   0  0
    6.0945   -3.9831    0.0000 C   0  0
    8.9066   -4.8660    0.0000 C   0  0
  2  1  2  0
  1  3  2  0
  5  6  1  0
  6  7  2  0
  7  4  1  0
  4  8  2  0
  8  9  1  0
  5  9  2  0
  5 10  1  0
 12 13  1  1
 11 12  1  0
 14 15  1  0
 15 16  2  0
 16 17  1  0
 17 18  2  0
 18 19  1  0
 14 19  2  0
 16 20  1  0
 12 14  1  0
  6 11  1  0
 19 21  1  0
 21 22  1  0
 22 23  2  0
 23 24  1  0
 24 25  2  0
 25 21  1  0
 26 27  2  0
 27 28  1  0
 28 29  2  0
 29 30  1  0
 30 31  2  0
 31 26  1  0
  4 26  1  0
 28  1  1  0
  1 32  1  0
M  END
> <From>
www.bindingDB.org

> <BindingDB Reactant_set_id>
50103528

> <Ligand InChI>
InChI=1S/C22H20FN5O3S/c1-14(19-12-17(23)6-7-20(19)28-26-8-9-27-28)31-21-11-16(13-25-22(21)24)15-4-3-5-18(10-15)32(2,29)30/h3-14H,1-2H3,(H2,24,25)/t14-/m1/s1

> <Ligand InChI Key>
BCKZYTLSGWMFTG-CQSZACIVSA-N

> <BindingDB MonomerID>
50018823

> <BindingDB Ligand Name>
CHEMBL3286813

> <Target Name>
ALK tyrosine kinase receptor

> <Target Source Organism According to Curator or DataSource>
Homo sapiens

> <Ki (nM)>
<0.200000

> <IC50 (nM)>


> <Kd (nM)>


> <EC50 (nM)>


> <kon (M-1-s-1)>


> <koff (s-1)>


> <pH>


> <Temp C>


> <Curation/DataSource>
ChEMBL

> <Article DOI>
10.1021/jm500261q

> <BindingDB Entry DOI>
10.7270/Q2K35W68

> <PMID>
24819116

> <PubChem AID>


> <Patent Number>


> <Authors>
Johnson, TW; Richardson, PF; Bailey, S; Brooun, A; Burke, BJ; Collins, MR; Cui, JJ; Deal, JG; Deng, YL; Dinh, D; Engstrom, LD; He, M; Hoffman, J; Hoffman, RL; Huang, Q; Kania, RS; Kath, JC; Lam, H; Lam, JL; Le, PT; Lingardo, L; Liu, W; McTigue, M; Palmer, CL; Sach, NW; Smeal, T; Smith, GL; Stewart, AE; Timofeevski, S; Zhu, H; Zhu, J; Zou, HY; Edwards, MP

> <Date of publication>
6/12/2014

> <Date in BindingDB>
2/11/2015

> <Institution>
Pfizer Inc

> <Link to Ligand in BindingDB>
http://www.bindingdb.org/bind/chemsearch/marvin/MolStructure.jsp?monomerid=50018823

> <Link to Ligand-Target Pair in BindingDB>
http://www.bindingdb.org/jsp/dbsearch/PrimarySearch_ki.jsp?energyterm=kJ/mole&tag=pol&polymerid=5809&target=ALK+tyrosine+kinase+receptor&column=ki&startPg=0&Increment=50&submit=Search

> <Link to Ligand-Target Pair in BindingDB>
http://www.bindingdb.org/jsp/dbsearch/PrimarySearch_ki.jsp?energyterm=kJ/mole&tag=r21&monomerid=50018823&enzyme=ALK+tyrosine+kinase+receptor&column=ki&startPg=0&Increment=50&submit=Search

> <Ligand HET ID in PDB>


> <PDB ID(s) for Ligand-Target Complex>


> <PubChem CID of Ligand>
73819543

> <PubChem SID of Ligand>
103929876

> <ChEBI ID of Ligand>


> <ChEMBL ID of Ligand>
CHEMBL3286813

> <DrugBank ID of Ligand>


> <IUPHAR_GRAC ID of Ligand>


> <KEGG ID of Ligand>


> <ZINC ID of Ligand>
ZINC34216072

> <Number of Protein Chains in Target (bigger than 1 implies a multichain complex)>
1

> <BindingDB Target Chain Sequence>
MGAIGLLWLLPLLLSTAAVGSGMGTGQRAGSPAAGPPLQPREPLSYSRLQRKSLAVDFVVPSLFRVYARDLLLPPSSSELKAGRPEARGSLALDCAPLLRLLGPAPGVSWTAGSPAPAEARTLSRVLKGGSVRKLRRAKQLVLELGEEAILEGCVGPPGEAAVGLLQFNLSELFSWWIRQGEGRLRIRLMPEKKASEVGREGRLSAAIRASQPRLLFQIFGTGHSSLESPTNMPSPSPDYFTWNLTWIMKDSFPFLSHRSRYGLECSFDFPCELEYSPPLHDLRNQSWSWRRIPSEEASQMDLLDGPGAERSKEMPRGSFLLLNTSADSKHTILSPWMRSSSEHCTLAVSVHRHLQPSGRYIAQLLPHNEAAREILLMPTPGKHGWTVLQGRIGRPDNPFRVALEYISSGNRSLSAVDFFALKNCSEGTSPGSKMALQSSFTCWNGTVLQLGQACDFHQDCAQGEDESQMCRKLPVGFYCNFEDGFCGWTQGTLSPHTPQWQVRTLKDARFQDHQDHALLLSTTDVPASESATVTSATFPAPIKSSPCELRMSWLIRGVLRGNVSLVLVENKTGKEQGRMVWHVAAYEGLSLWQWMVLPLLDVSDRFWLQMVAWWGQGSRAIVAFDNISISLDCYLTISGEDKILQNTAPKSRNLFERNPNKELKPGENSPRQTPIFDPTVHWLFTTCGASGPHGPTQAQCNNAYQNSNLSVEVGSEGPLKGIQIWKVPATDTYSISGYGAAGGKGGKNTMMRSHGVSVLGIFNLEKDDMLYILVGQQGEDACPSTNQLIQKVCIGENNVIEEEIRVNRSVHEWAGGGGGGGGATYVFKMKDGVPVPLIIAAGGGGRAYGAKTDTFHPERLENNSSVLGLNGNSGAAGGGGGWNDNTSLLWAGKSLQEGATGGHSCPQAMKKWGWETRGGFGGGGGGCSSGGGGGGYIGGNAASNNDPEMDGEDGVSFISPLGILYTPALKVMEGHGEVNIKHYLNCSHCEVDECHMDPESHKVICFCDHGTVLAEDGVSCIVSPTPEPHLPLSLILSVVTSALVAALVLAFSGIMIVYRRKHQELQAMQMELQSPEYKLSKLRTSTIMTDYNPNYCFAGKTSSISDLKEVPRKNITLIRGLGHGAFGEVYEGQVSGMPNDPSPLQVAVKTLPEVCSEQDELDFLMEALIISKFNHQNIVRCIGVSLQSLPRFILLELMAGGDLKSFLRETRPRPSQPSSLAMLDLLHVARDIACGCQYLEENHFIHRDIAARNCLLTCPGPGRVAKIGDFGMARDIYRASYYRKGGCAMLPVKWMPPEAFMEGIFTSKTDTWSFGVLLWEIFSLGYMPYPSKSNQEVLEFVTSGGRMDPPKNCPGPVYRIMTQCWQHQPEDRPNFAIILERIEYCTQDPDVINTALPIEYGPLVEEEEKVPVRPKDPEGVPPLLVSQQAKREEERSPAAPPPLPTTSSGKAAKKPTAAEISVRVPRGPAVEGGHVNMAFSQSNPPSELHKVHGSRNKPTSLWNPTYGSWFTEKPTKKNNPIAKKEPHDRGNLGLEGSCTVPPNVATGRLPGASLLLEPSSLTANMKEVPLFRLRHFPCGNVNYGYQQQGLPLEAATAPGAGHYEDTILKSKNSMNQPGP

> <PDB ID(s) of Target Chain>
2XB7,2XBA,3AOX,5FTO,5FTQ,6E0R,6EBW,6EDL,6MX8,7JY4,7JYR,7JYS,7JYT,7LS0,7MZW,7MZY,7N00,7NX3,7NX4,8ARJ

> <UniProt (SwissProt) Recommended Name of Target Chain>
ALK tyrosine kinase receptor

> <UniProt (SwissProt) Entry Name of Target Chain>
ALK_HUMAN

> <UniProt (SwissProt) Primary ID of Target Chain>
Q9UM73

> <UniProt (SwissProt) Secondary ID(s) of Target Chain>
A6P4T4 A6P4V4 Q4ZFX9 Q53QQ6 Q53RZ4 Q59FI3 Q9Y4K6

> <UniProt (SwissProt) Alternative ID(s) of Target Chain>


> <UniProt (TrEMBL) Submitted Name of Target Chain>


> <UniProt (TrEMBL) Entry Name of Target Chain>


> <UniProt (TrEMBL) Primary ID of Target Chain>


> <UniProt (TrEMBL) Secondary ID(s) of Target Chain>


> <UniProt (TrEMBL) Alternative ID(s) of Target Chain>


$$$$

  SciTegic09261414532D

 29 32  0  0  0  0            999 V2000
    4.9153   -4.1332    0.0000 O   0  0
    4.1943   -4.5280    0.0000 C   0  0  1  0  0  0
    3.4888   -4.0991    0.0000 C   0  0
    3.5133   -3.2753    0.0000 C   0  0
    2.8087   -2.8465    0.0000 C   0  0
    2.0868   -3.2413    0.0000 C   0  0
    2.0698   -4.0695    0.0000 C   0  0
    2.7751   -4.4945    0.0000 C   0  0
    4.2397   -2.8827    0.0000 C   0  0
    1.3461   -4.4669    0.0000 F   0  0
    7.7890   -3.3721    0.0000 C   0  0
    5.6018   -4.5613    0.0000 C   0  0
    7.0500   -4.5968    0.0000 C   0  0
    5.6020   -5.3875    0.0000 C   0  0
    6.3478   -4.1673    0.0000 C   0  0
    7.0303   -5.4215    0.0000 C   0  0
    6.3085   -5.8169    0.0000 N   0  0
    4.8758   -5.7828    0.0000 N   0  0
    7.7736   -4.2013    0.0000 C   0  0
    8.5501   -4.4702    0.0000 C   0  0
    9.0507   -3.8141    0.0000 N   0  0
    8.5802   -3.1403    0.0000 N   0  0
    8.7884   -5.2575    0.0000 C   0  0
    3.7756   -5.2408    0.0000 C   0  0
    4.9558   -3.3235    0.0000 O   0  0
    4.2634   -2.0421    0.0000 N   0  0
    5.0031   -1.6423    0.0000 C   0  0
    3.5473   -1.6014    0.0000 C   0  0
    8.8592   -2.3470    0.0000 C   0  0
 12  1  1  0
  1  2  1  0
  2  3  1  0
  3  4  2  0
  4  5  1  0
  5  6  2  0
  6  7  1  0
  7  8  2  0
  8  3  1  0
  4  9  1  0
  7 10  1  0
 14 12  1  0
 12 15  2  0
 15 13  1  0
 13 16  2  0
 16 17  1  0
 14 17  2  0
 14 18  1  0
 13 19  1  0
 11 19  2  0
 19 20  1  0
 20 21  2  0
 21 22  1  0
 22 11  1  0
 20 23  1  0
  2 24  1  6
  9 25  2  0
  9 26  1  0
 26 27  1  0
 26 28  1  0
 27 11  1  0
 22 29  1  0
M  END
> <From>
www.bindingDB.org

> <BindingDB Reactant_set_id>
50103542

> <Ligand InChI>
InChI=1S/C21H22FN5O2/c1-11-19-13-7-18(20(23)24-9-13)29-12(2)16-8-14(22)5-6-15(16)21(28)26(3)10-17(19)27(4)25-11/h5-9,12H,10H2,1-4H3,(H2,23,24)/t12-/m1/s1

> <Ligand InChI Key>
ASQDMAQHZGURLM-GFCCVEGCSA-N

> <BindingDB MonomerID>
50018815

> <BindingDB Ligand Name>
CHEMBL3286820

> <Target Name>
ALK tyrosine kinase receptor

> <Target Source Organism According to Curator or DataSource>
Homo sapiens

> <Ki (nM)>
<0.200000

> <IC50 (nM)>


> <Kd (nM)>


> <EC50 (nM)>


> <kon (M-1-s-1)>


> <koff (s-1)>


> <pH>


> <Temp C>


> <Curation/DataSource>
ChEMBL

> <Article DOI>
10.1021/jm500261q

> <BindingDB Entry DOI>
10.7270/Q2K35W68

> <PMID>
24819116

> <PubChem AID>


> <Patent Number>


> <Authors>
Johnson, TW; Richardson, PF; Bailey, S; Brooun, A; Burke, BJ; Collins, MR; Cui, JJ; Deal, JG; Deng, YL; Dinh, D; Engstrom, LD; He, M; Hoffman, J; Hoffman, RL; Huang, Q; Kania, RS; Kath, JC; Lam, H; Lam, JL; Le, PT; Lingardo, L; Liu, W; McTigue, M; Palmer, CL; Sach, NW; Smeal, T; Smith, GL; Stewart, AE; Timofeevski, S; Zhu, H; Zhu, J; Zou, HY; Edwards, MP

> <Date of publication>
6/12/2014

> <Date in BindingDB>
2/11/2015

> <Institution>
Pfizer Inc

> <Link to Ligand in BindingDB>
http://www.bindingdb.org/bind/chemsearch/marvin/MolStructure.jsp?monomerid=50018815

> <Link to Ligand-Target Pair in BindingDB>
http://www.bindingdb.org/jsp/dbsearch/PrimarySearch_ki.jsp?energyterm=kJ/mole&tag=pol&polymerid=5809&target=ALK+tyrosine+kinase+receptor&column=ki&startPg=0&Increment=50&submit=Search

> <Link to Ligand-Target Pair in BindingDB>
http://www.bindingdb.org/jsp/dbsearch/PrimarySearch_ki.jsp?energyterm=kJ/mole&tag=r21&monomerid=50018815&enzyme=ALK+tyrosine+kinase+receptor&column=ki&startPg=0&Increment=50&submit=Search

> <Ligand HET ID in PDB>
IV7

> <PDB ID(s) for Ligand-Target Complex>
4CMU

> <PubChem CID of Ligand>
90644193

> <PubChem SID of Ligand>
103929868

> <ChEBI ID of Ligand>


> <ChEMBL ID of Ligand>
CHEMBL3286820

> <DrugBank ID of Ligand>


> <IUPHAR_GRAC ID of Ligand>


> <KEGG ID of Ligand>


> <ZINC ID of Ligand>
ZINC33891509

> <Number of Protein Chains in Target (bigger than 1 implies a multichain complex)>
1

> <BindingDB Target Chain Sequence>
MGAIGLLWLLPLLLSTAAVGSGMGTGQRAGSPAAGPPLQPREPLSYSRLQRKSLAVDFVVPSLFRVYARDLLLPPSSSELKAGRPEARGSLALDCAPLLRLLGPAPGVSWTAGSPAPAEARTLSRVLKGGSVRKLRRAKQLVLELGEEAILEGCVGPPGEAAVGLLQFNLSELFSWWIRQGEGRLRIRLMPEKKASEVGREGRLSAAIRASQPRLLFQIFGTGHSSLESPTNMPSPSPDYFTWNLTWIMKDSFPFLSHRSRYGLECSFDFPCELEYSPPLHDLRNQSWSWRRIPSEEASQMDLLDGPGAERSKEMPRGSFLLLNTSADSKHTILSPWMRSSSEHCTLAVSVHRHLQPSGRYIAQLLPHNEAAREILLMPTPGKHGWTVLQGRIGRPDNPFRVALEYISSGNRSLSAVDFFALKNCSEGTSPGSKMALQSSFTCWNGTVLQLGQACDFHQDCAQGEDESQMCRKLPVGFYCNFEDGFCGWTQGTLSPHTPQWQVRTLKDARFQDHQDHALLLSTTDVPASESATVTSATFPAPIKSSPCELRMSWLIRGVLRGNVSLVLVENKTGKEQGRMVWHVAAYEGLSLWQWMVLPLLDVSDRFWLQMVAWWGQGSRAIVAFDNISISLDCYLTISGEDKILQNTAPKSRNLFERNPNKELKPGENSPRQTPIFDPTVHWLFTTCGASGPHGPTQAQCNNAYQNSNLSVEVGSEGPLKGIQIWKVPATDTYSISGYGAAGGKGGKNTMMRSHGVSVLGIFNLEKDDMLYILVGQQGEDACPSTNQLIQKVCIGENNVIEEEIRVNRSVHEWAGGGGGGGGATYVFKMKDGVPVPLIIAAGGGGRAYGAKTDTFHPERLENNSSVLGLNGNSGAAGGGGGWNDNTSLLWAGKSLQEGATGGHSCPQAMKKWGWETRGGFGGGGGGCSSGGGGGGYIGGNAASNNDPEMDGEDGVSFISPLGILYTPALKVMEGHGEVNIKHYLNCSHCEVDECHMDPESHKVICFCDHGTVLAEDGVSCIVSPTPEPHLPLSLILSVVTSALVAALVLAFSGIMIVYRRKHQELQAMQMELQSPEYKLSKLRTSTIMTDYNPNYCFAGKTSSISDLKEVPRKNITLIRGLGHGAFGEVYEGQVSGMPNDPSPLQVAVKTLPEVCSEQDELDFLMEALIISKFNHQNIVRCIGVSLQSLPRFILLELMAGGDLKSFLRETRPRPSQPSSLAMLDLLHVARDIACGCQYLEENHFIHRDIAARNCLLTCPGPGRVAKIGDFGMARDIYRASYYRKGGCAMLPVKWMPPEAFMEGIFTSKTDTWSFGVLLWEIFSLGYMPYPSKSNQEVLEFVTSGGRMDPPKNCPGPVYRIMTQCWQHQPEDRPNFAIILERIEYCTQDPDVINTALPIEYGPLVEEEEKVPVRPKDPEGVPPLLVSQQAKREEERSPAAPPPLPTTSSGKAAKKPTAAEISVRVPRGPAVEGGHVNMAFSQSNPPSELHKVHGSRNKPTSLWNPTYGSWFTEKPTKKNNPIAKKEPHDRGNLGLEGSCTVPPNVATGRLPGASLLLEPSSLTANMKEVPLFRLRHFPCGNVNYGYQQQGLPLEAATAPGAGHYEDTILKSKNSMNQPGP

> <PDB ID(s) of Target Chain>
2XB7,2XBA,3AOX,5FTO,5FTQ,6E0R,6EBW,6EDL,6MX8,7JY4,7JYR,7JYS,7JYT,7LS0,7MZW,7MZY,7N00,7NX3,7NX4,8ARJ

> <UniProt (SwissProt) Recommended Name of Target Chain>
ALK tyrosine kinase receptor

> <UniProt (SwissProt) Entry Name of Target Chain>
ALK_HUMAN

> <UniProt (SwissProt) Primary ID of Target Chain>
Q9UM73

> <UniProt (SwissProt) Secondary ID(s) of Target Chain>
A6P4T4 A6P4V4 Q4ZFX9 Q53QQ6 Q53RZ4 Q59FI3 Q9Y4K6

> <UniProt (SwissProt) Alternative ID(s) of Target Chain>


> <UniProt (TrEMBL) Submitted Name of Target Chain>


> <UniProt (TrEMBL) Entry Name of Target Chain>


> <UniProt (TrEMBL) Primary ID of Target Chain>


> <UniProt (TrEMBL) Secondary ID(s) of Target Chain>


> <UniProt (TrEMBL) Alternative ID(s) of Target Chain>


$$$$

  SciTegic09261414532D

 28 31  0  0  0  0            999 V2000
    4.7766   -4.0166    0.0000 O   0  0
    4.0760   -4.4003    0.0000 C   0  0
    3.3904   -3.9835    0.0000 C   0  0
    3.4142   -3.1829    0.0000 C   0  0
    2.7295   -2.7662    0.0000 C   0  0
    2.0279   -3.1499    0.0000 C   0  0
    2.0114   -3.9547    0.0000 C   0  0
    2.6968   -4.3677    0.0000 C   0  0
    4.1201   -2.8014    0.0000 C   0  0
    1.3081   -4.3409    0.0000 F   0  0
    7.5693   -3.2770    0.0000 C   0  0
    5.4438   -4.4326    0.0000 C   0  0
    6.8511   -4.4671    0.0000 C   0  0
    5.4440   -5.2355    0.0000 C   0  0
    6.1687   -4.0497    0.0000 C   0  0
    6.8320   -5.2686    0.0000 C   0  0
    6.1305   -5.6528    0.0000 N   0  0
    4.7383   -5.6197    0.0000 N   0  0
    7.5543   -4.0828    0.0000 C   0  0
    8.3089   -4.3441    0.0000 C   0  0
    8.7954   -3.7065    0.0000 N   0  0
    8.3382   -3.0517    0.0000 N   0  0
    8.5405   -5.1092    0.0000 C   0  0
    4.8160   -3.2297    0.0000 O   0  0
    4.1431   -1.9845    0.0000 N   0  0
    4.8620   -1.5960    0.0000 C   0  0
    3.4472   -1.5562    0.0000 C   0  0
    8.6093   -2.2808    0.0000 C   0  0
 12  1  1  0
  1  2  1  0
  2  3  1  0
  3  4  2  0
  4  5  1  0
  5  6  2  0
  6  7  1  0
  7  8  2  0
  8  3  1  0
  4  9  1  0
  7 10  1  0
 14 12  1  0
 12 15  2  0
 15 13  1  0
 13 16  2  0
 16 17  1  0
 14 17  2  0
 14 18  1  0
 13 19  1  0
 11 19  2  0
 19 20  1  0
 20 21  2  0
 21 22  1  0
 22 11  1  0
 20 23  1  0
  9 24  2  0
  9 25  1  0
 25 26  1  0
 25 27  1  0
 26 11  1  0
 22 28  1  0
M  END
> <From>
www.bindingDB.org

> <BindingDB Reactant_set_id>
50103553

> <Ligand InChI>
InChI=1S/C20H20FN5O2/c1-11-18-12-7-17(19(22)23-8-12)28-10-13-6-14(21)4-5-15(13)20(27)25(2)9-16(18)26(3)24-11/h4-8H,9-10H2,1-3H3,(H2,22,23)

> <Ligand InChI Key>
KTZLYUTXTQABMN-UHFFFAOYSA-N

> <BindingDB MonomerID>
50018832

> <BindingDB Ligand Name>
CHEMBL3286822

> <Target Name>
ALK tyrosine kinase receptor

> <Target Source Organism According to Curator or DataSource>
Homo sapiens

> <Ki (nM)>
<0.200000

> <IC50 (nM)>


> <Kd (nM)>


> <EC50 (nM)>


> <kon (M-1-s-1)>


> <koff (s-1)>


> <pH>


> <Temp C>


> <Curation/DataSource>
ChEMBL

> <Article DOI>
10.1021/jm500261q

> <BindingDB Entry DOI>
10.7270/Q2K35W68

> <PMID>
24819116

> <PubChem AID>


> <Patent Number>


> <Authors>
Johnson, TW; Richardson, PF; Bailey, S; Brooun, A; Burke, BJ; Collins, MR; Cui, JJ; Deal, JG; Deng, YL; Dinh, D; Engstrom, LD; He, M; Hoffman, J; Hoffman, RL; Huang, Q; Kania, RS; Kath, JC; Lam, H; Lam, JL; Le, PT; Lingardo, L; Liu, W; McTigue, M; Palmer, CL; Sach, NW; Smeal, T; Smith, GL; Stewart, AE; Timofeevski, S; Zhu, H; Zhu, J; Zou, HY; Edwards, MP

> <Date of publication>
6/12/2014

> <Date in BindingDB>
2/11/2015

> <Institution>
Pfizer Inc

> <Link to Ligand in BindingDB>
http://www.bindingdb.org/bind/chemsearch/marvin/MolStructure.jsp?monomerid=50018832

> <Link to Ligand-Target Pair in BindingDB>
http://www.bindingdb.org/jsp/dbsearch/PrimarySearch_ki.jsp?energyterm=kJ/mole&tag=pol&polymerid=5809&target=ALK+tyrosine+kinase+receptor&column=ki&startPg=0&Increment=50&submit=Search

> <Link to Ligand-Target Pair in BindingDB>
http://www.bindingdb.org/jsp/dbsearch/PrimarySearch_ki.jsp?energyterm=kJ/mole&tag=r21&monomerid=50018832&enzyme=ALK+tyrosine+kinase+receptor&column=ki&startPg=0&Increment=50&submit=Search

> <Ligand HET ID in PDB>


> <PDB ID(s) for Ligand-Target Complex>


> <PubChem CID of Ligand>
71731827

> <PubChem SID of Ligand>
103929885

> <ChEBI ID of Ligand>


> <ChEMBL ID of Ligand>
CHEMBL3286822

> <DrugBank ID of Ligand>


> <IUPHAR_GRAC ID of Ligand>


> <KEGG ID of Ligand>


> <ZINC ID of Ligand>
ZINC34216070

> <Number of Protein Chains in Target (bigger than 1 implies a multichain complex)>
1

> <BindingDB Target Chain Sequence>
MGAIGLLWLLPLLLSTAAVGSGMGTGQRAGSPAAGPPLQPREPLSYSRLQRKSLAVDFVVPSLFRVYARDLLLPPSSSELKAGRPEARGSLALDCAPLLRLLGPAPGVSWTAGSPAPAEARTLSRVLKGGSVRKLRRAKQLVLELGEEAILEGCVGPPGEAAVGLLQFNLSELFSWWIRQGEGRLRIRLMPEKKASEVGREGRLSAAIRASQPRLLFQIFGTGHSSLESPTNMPSPSPDYFTWNLTWIMKDSFPFLSHRSRYGLECSFDFPCELEYSPPLHDLRNQSWSWRRIPSEEASQMDLLDGPGAERSKEMPRGSFLLLNTSADSKHTILSPWMRSSSEHCTLAVSVHRHLQPSGRYIAQLLPHNEAAREILLMPTPGKHGWTVLQGRIGRPDNPFRVALEYISSGNRSLSAVDFFALKNCSEGTSPGSKMALQSSFTCWNGTVLQLGQACDFHQDCAQGEDESQMCRKLPVGFYCNFEDGFCGWTQGTLSPHTPQWQVRTLKDARFQDHQDHALLLSTTDVPASESATVTSATFPAPIKSSPCELRMSWLIRGVLRGNVSLVLVENKTGKEQGRMVWHVAAYEGLSLWQWMVLPLLDVSDRFWLQMVAWWGQGSRAIVAFDNISISLDCYLTISGEDKILQNTAPKSRNLFERNPNKELKPGENSPRQTPIFDPTVHWLFTTCGASGPHGPTQAQCNNAYQNSNLSVEVGSEGPLKGIQIWKVPATDTYSISGYGAAGGKGGKNTMMRSHGVSVLGIFNLEKDDMLYILVGQQGEDACPSTNQLIQKVCIGENNVIEEEIRVNRSVHEWAGGGGGGGGATYVFKMKDGVPVPLIIAAGGGGRAYGAKTDTFHPERLENNSSVLGLNGNSGAAGGGGGWNDNTSLLWAGKSLQEGATGGHSCPQAMKKWGWETRGGFGGGGGGCSSGGGGGGYIGGNAASNNDPEMDGEDGVSFISPLGILYTPALKVMEGHGEVNIKHYLNCSHCEVDECHMDPESHKVICFCDHGTVLAEDGVSCIVSPTPEPHLPLSLILSVVTSALVAALVLAFSGIMIVYRRKHQELQAMQMELQSPEYKLSKLRTSTIMTDYNPNYCFAGKTSSISDLKEVPRKNITLIRGLGHGAFGEVYEGQVSGMPNDPSPLQVAVKTLPEVCSEQDELDFLMEALIISKFNHQNIVRCIGVSLQSLPRFILLELMAGGDLKSFLRETRPRPSQPSSLAMLDLLHVARDIACGCQYLEENHFIHRDIAARNCLLTCPGPGRVAKIGDFGMARDIYRASYYRKGGCAMLPVKWMPPEAFMEGIFTSKTDTWSFGVLLWEIFSLGYMPYPSKSNQEVLEFVTSGGRMDPPKNCPGPVYRIMTQCWQHQPEDRPNFAIILERIEYCTQDPDVINTALPIEYGPLVEEEEKVPVRPKDPEGVPPLLVSQQAKREEERSPAAPPPLPTTSSGKAAKKPTAAEISVRVPRGPAVEGGHVNMAFSQSNPPSELHKVHGSRNKPTSLWNPTYGSWFTEKPTKKNNPIAKKEPHDRGNLGLEGSCTVPPNVATGRLPGASLLLEPSSLTANMKEVPLFRLRHFPCGNVNYGYQQQGLPLEAATAPGAGHYEDTILKSKNSMNQPGP

> <PDB ID(s) of Target Chain>
2XB7,2XBA,3AOX,5FTO,5FTQ,6E0R,6EBW,6EDL,6MX8,7JY4,7JYR,7JYS,7JYT,7LS0,7MZW,7MZY,7N00,7NX3,7NX4,8ARJ

> <UniProt (SwissProt) Recommended Name of Target Chain>
ALK tyrosine kinase receptor

> <UniProt (SwissProt) Entry Name of Target Chain>
ALK_HUMAN

> <UniProt (SwissProt) Primary ID of Target Chain>
Q9UM73

> <UniProt (SwissProt) Secondary ID(s) of Target Chain>
A6P4T4 A6P4V4 Q4ZFX9 Q53QQ6 Q53RZ4 Q59FI3 Q9Y4K6

> <UniProt (SwissProt) Alternative ID(s) of Target Chain>


> <UniProt (TrEMBL) Submitted Name of Target Chain>


> <UniProt (TrEMBL) Entry Name of Target Chain>


> <UniProt (TrEMBL) Primary ID of Target Chain>


> <UniProt (TrEMBL) Secondary ID(s) of Target Chain>


> <UniProt (TrEMBL) Alternative ID(s) of Target Chain>


$$$$

  SciTegic09261414532D

 29 32  0  0  0  0            999 V2000
    4.9153   -4.1332    0.0000 O   0  0
    4.1943   -4.5280    0.0000 C   0  0  1  0  0  0
    3.4888   -4.0991    0.0000 C   0  0
    3.5133   -3.2753    0.0000 C   0  0
    2.8087   -2.8465    0.0000 C   0  0
    2.0868   -3.2413    0.0000 C   0  0
    2.0698   -4.0695    0.0000 C   0  0
    2.7751   -4.4945    0.0000 C   0  0
    4.2397   -2.8827    0.0000 C   0  0
    1.3461   -4.4669    0.0000 F   0  0
    7.7890   -3.3721    0.0000 C   0  0
    5.6018   -4.5613    0.0000 C   0  0
    7.0500   -4.5968    0.0000 C   0  0
    5.6020   -5.3875    0.0000 C   0  0
    6.3478   -4.1673    0.0000 N   0  0
    7.0303   -5.4215    0.0000 C   0  0
    6.3085   -5.8169    0.0000 N   0  0
    4.8758   -5.7828    0.0000 N   0  0
    7.7736   -4.2013    0.0000 C   0  0
    8.5501   -4.4702    0.0000 C   0  0
    9.0507   -3.8141    0.0000 N   0  0
    8.5802   -3.1403    0.0000 N   0  0
    8.7884   -5.2575    0.0000 C   0  0
    4.9558   -3.3235    0.0000 O   0  0
    4.2634   -2.0421    0.0000 N   0  0
    5.0031   -1.6423    0.0000 C   0  0
    3.5473   -1.6014    0.0000 C   0  0
    8.8592   -2.3470    0.0000 C   0  0
    3.7672   -5.2536    0.0000 C   0  0
 12  1  1  0
  1  2  1  0
  2  3  1  0
  3  4  2  0
  4  5  1  0
  5  6  2  0
  6  7  1  0
  7  8  2  0
  8  3  1  0
  4  9  1  0
  7 10  1  0
 14 12  1  0
 12 15  2  0
 15 13  1  0
 13 16  2  0
 16 17  1  0
 14 17  2  0
 14 18  1  0
 13 19  1  0
 11 19  2  0
 19 20  1  0
 20 21  2  0
 21 22  1  0
 22 11  1  0
 20 23  1  0
  9 24  2  0
  9 25  1  0
 25 26  1  0
 25 27  1  0
 26 11  1  0
 22 28  1  0
  2 29  1  6
M  END
> <From>
www.bindingDB.org

> <BindingDB Reactant_set_id>
50103554

> <Ligand InChI>
InChI=1S/C20H21FN6O2/c1-10-17-15-8-23-18(22)19(24-15)29-11(2)14-7-12(21)5-6-13(14)20(28)26(3)9-16(17)27(4)25-10/h5-8,11H,9H2,1-4H3,(H2,22,23)/t11-/m1/s1

> <Ligand InChI Key>
BOSKQVUEUWJLFT-LLVKDONJSA-N

> <BindingDB MonomerID>
50018833

> <BindingDB Ligand Name>
CHEMBL3286823

> <Target Name>
ALK tyrosine kinase receptor

> <Target Source Organism According to Curator or DataSource>
Homo sapiens

> <Ki (nM)>
<0.200000

> <IC50 (nM)>


> <Kd (nM)>


> <EC50 (nM)>


> <kon (M-1-s-1)>


> <koff (s-1)>


> <pH>


> <Temp C>


> <Curation/DataSource>
ChEMBL

> <Article DOI>
10.1021/jm500261q

> <BindingDB Entry DOI>
10.7270/Q2K35W68

> <PMID>
24819116

> <PubChem AID>


> <Patent Number>


> <Authors>
Johnson, TW; Richardson, PF; Bailey, S; Brooun, A; Burke, BJ; Collins, MR; Cui, JJ; Deal, JG; Deng, YL; Dinh, D; Engstrom, LD; He, M; Hoffman, J; Hoffman, RL; Huang, Q; Kania, RS; Kath, JC; Lam, H; Lam, JL; Le, PT; Lingardo, L; Liu, W; McTigue, M; Palmer, CL; Sach, NW; Smeal, T; Smith, GL; Stewart, AE; Timofeevski, S; Zhu, H; Zhu, J; Zou, HY; Edwards, MP

> <Date of publication>
6/12/2014

> <Date in BindingDB>
2/11/2015

> <Institution>
Pfizer Inc

> <Link to Ligand in BindingDB>
http://www.bindingdb.org/bind/chemsearch/marvin/MolStructure.jsp?monomerid=50018833

> <Link to Ligand-Target Pair in BindingDB>
http://www.bindingdb.org/jsp/dbsearch/PrimarySearch_ki.jsp?energyterm=kJ/mole&tag=pol&polymerid=5809&target=ALK+tyrosine+kinase+receptor&column=ki&startPg=0&Increment=50&submit=Search

> <Link to Ligand-Target Pair in BindingDB>
http://www.bindingdb.org/jsp/dbsearch/PrimarySearch_ki.jsp?energyterm=kJ/mole&tag=r21&monomerid=50018833&enzyme=ALK+tyrosine+kinase+receptor&column=ki&startPg=0&Increment=50&submit=Search

> <Ligand HET ID in PDB>


> <PDB ID(s) for Ligand-Target Complex>


> <PubChem CID of Ligand>
90644199

> <PubChem SID of Ligand>
103929886

> <ChEBI ID of Ligand>


> <ChEMBL ID of Ligand>
CHEMBL3286823

> <DrugBank ID of Ligand>


> <IUPHAR_GRAC ID of Ligand>


> <KEGG ID of Ligand>


> <ZINC ID of Ligand>
ZINC33891534

> <Number of Protein Chains in Target (bigger than 1 implies a multichain complex)>
1

> <BindingDB Target Chain Sequence>
MGAIGLLWLLPLLLSTAAVGSGMGTGQRAGSPAAGPPLQPREPLSYSRLQRKSLAVDFVVPSLFRVYARDLLLPPSSSELKAGRPEARGSLALDCAPLLRLLGPAPGVSWTAGSPAPAEARTLSRVLKGGSVRKLRRAKQLVLELGEEAILEGCVGPPGEAAVGLLQFNLSELFSWWIRQGEGRLRIRLMPEKKASEVGREGRLSAAIRASQPRLLFQIFGTGHSSLESPTNMPSPSPDYFTWNLTWIMKDSFPFLSHRSRYGLECSFDFPCELEYSPPLHDLRNQSWSWRRIPSEEASQMDLLDGPGAERSKEMPRGSFLLLNTSADSKHTILSPWMRSSSEHCTLAVSVHRHLQPSGRYIAQLLPHNEAAREILLMPTPGKHGWTVLQGRIGRPDNPFRVALEYISSGNRSLSAVDFFALKNCSEGTSPGSKMALQSSFTCWNGTVLQLGQACDFHQDCAQGEDESQMCRKLPVGFYCNFEDGFCGWTQGTLSPHTPQWQVRTLKDARFQDHQDHALLLSTTDVPASESATVTSATFPAPIKSSPCELRMSWLIRGVLRGNVSLVLVENKTGKEQGRMVWHVAAYEGLSLWQWMVLPLLDVSDRFWLQMVAWWGQGSRAIVAFDNISISLDCYLTISGEDKILQNTAPKSRNLFERNPNKELKPGENSPRQTPIFDPTVHWLFTTCGASGPHGPTQAQCNNAYQNSNLSVEVGSEGPLKGIQIWKVPATDTYSISGYGAAGGKGGKNTMMRSHGVSVLGIFNLEKDDMLYILVGQQGEDACPSTNQLIQKVCIGENNVIEEEIRVNRSVHEWAGGGGGGGGATYVFKMKDGVPVPLIIAAGGGGRAYGAKTDTFHPERLENNSSVLGLNGNSGAAGGGGGWNDNTSLLWAGKSLQEGATGGHSCPQAMKKWGWETRGGFGGGGGGCSSGGGGGGYIGGNAASNNDPEMDGEDGVSFISPLGILYTPALKVMEGHGEVNIKHYLNCSHCEVDECHMDPESHKVICFCDHGTVLAEDGVSCIVSPTPEPHLPLSLILSVVTSALVAALVLAFSGIMIVYRRKHQELQAMQMELQSPEYKLSKLRTSTIMTDYNPNYCFAGKTSSISDLKEVPRKNITLIRGLGHGAFGEVYEGQVSGMPNDPSPLQVAVKTLPEVCSEQDELDFLMEALIISKFNHQNIVRCIGVSLQSLPRFILLELMAGGDLKSFLRETRPRPSQPSSLAMLDLLHVARDIACGCQYLEENHFIHRDIAARNCLLTCPGPGRVAKIGDFGMARDIYRASYYRKGGCAMLPVKWMPPEAFMEGIFTSKTDTWSFGVLLWEIFSLGYMPYPSKSNQEVLEFVTSGGRMDPPKNCPGPVYRIMTQCWQHQPEDRPNFAIILERIEYCTQDPDVINTALPIEYGPLVEEEEKVPVRPKDPEGVPPLLVSQQAKREEERSPAAPPPLPTTSSGKAAKKPTAAEISVRVPRGPAVEGGHVNMAFSQSNPPSELHKVHGSRNKPTSLWNPTYGSWFTEKPTKKNNPIAKKEPHDRGNLGLEGSCTVPPNVATGRLPGASLLLEPSSLTANMKEVPLFRLRHFPCGNVNYGYQQQGLPLEAATAPGAGHYEDTILKSKNSMNQPGP

> <PDB ID(s) of Target Chain>
2XB7,2XBA,3AOX,5FTO,5FTQ,6E0R,6EBW,6EDL,6MX8,7JY4,7JYR,7JYS,7JYT,7LS0,7MZW,7MZY,7N00,7NX3,7NX4,8ARJ

> <UniProt (SwissProt) Recommended Name of Target Chain>
ALK tyrosine kinase receptor

> <UniProt (SwissProt) Entry Name of Target Chain>
ALK_HUMAN

> <UniProt (SwissProt) Primary ID of Target Chain>
Q9UM73

> <UniProt (SwissProt) Secondary ID(s) of Target Chain>
A6P4T4 A6P4V4 Q4ZFX9 Q53QQ6 Q53RZ4 Q59FI3 Q9Y4K6

> <UniProt (SwissProt) Alternative ID(s) of Target Chain>


> <UniProt (TrEMBL) Submitted Name of Target Chain>


> <UniProt (TrEMBL) Entry Name of Target Chain>


> <UniProt (TrEMBL) Primary ID of Target Chain>


> <UniProt (TrEMBL) Secondary ID(s) of Target Chain>


> <UniProt (TrEMBL) Alternative ID(s) of Target Chain>


$$$$

  SciTegic09261414532D

 30 33  0  0  0  0            999 V2000
    4.9144   -4.1325    0.0000 O   0  0
    4.1936   -4.5272    0.0000 C   0  0  1  0  0  0
    3.4882   -4.0984    0.0000 C   0  0
    3.5127   -3.2747    0.0000 C   0  0
    2.8082   -2.8460    0.0000 C   0  0
    2.0864   -3.2408    0.0000 C   0  0
    2.0694   -4.0688    0.0000 C   0  0
    2.7746   -4.4937    0.0000 C   0  0
    4.2390   -2.8822    0.0000 C   0  0
    1.3458   -4.4661    0.0000 F   0  0
    7.7877   -3.3715    0.0000 C   0  0
    5.6008   -4.5605    0.0000 C   0  0
    7.0487   -4.5960    0.0000 C   0  0
    5.6010   -5.3865    0.0000 C   0  0
    6.3467   -4.1665    0.0000 C   0  0
    7.0291   -5.4206    0.0000 C   0  0
    6.3074   -5.8159    0.0000 N   0  0
    4.8750   -5.7818    0.0000 N   0  0
    7.7722   -4.2006    0.0000 C   0  0
    8.5486   -4.4694    0.0000 C   0  0
    9.0491   -3.8134    0.0000 N   0  0
    8.5787   -3.1397    0.0000 N   0  0
    8.7869   -5.2566    0.0000 O   0  0
    4.9549   -3.3229    0.0000 O   0  0
    4.2626   -2.0417    0.0000 N   0  0
    5.0023   -1.6420    0.0000 C   0  0
    3.5466   -1.6011    0.0000 C   0  0
    8.8577   -2.3466    0.0000 C   0  0
    3.7665   -5.2527    0.0000 C   0  0
    8.2119   -5.8700    0.0000 C   0  0
 12  1  1  0
  1  2  1  0
  2  3  1  0
  3  4  2  0
  4  5  1  0
  5  6  2  0
  6  7  1  0
  7  8  2  0
  8  3  1  0
  4  9  1  0
  7 10  1  0
 14 12  1  0
 12 15  2  0
 15 13  1  0
 13 16  2  0
 16 17  1  0
 14 17  2  0
 14 18  1  0
 13 19  1  0
 11 19  2  0
 19 20  1  0
 20 21  2  0
 21 22  1  0
 22 11  1  0
 20 23  1  0
  9 24  2  0
  9 25  1  0
 25 26  1  0
 25 27  1  0
 26 11  1  0
 22 28  1  0
  2 29  1  6
 23 30  1  0
M  END
> <From>
www.bindingDB.org

> <BindingDB Reactant_set_id>
50103558

> <Ligand InChI>
InChI=1S/C21H22FN5O3/c1-11-15-8-13(22)5-6-14(15)21(28)26(2)10-16-18(20(29-4)25-27(16)3)12-7-17(30-11)19(23)24-9-12/h5-9,11H,10H2,1-4H3,(H2,23,24)/t11-/m1/s1

> <Ligand InChI Key>
WIMIQKULKCAFMS-LLVKDONJSA-N

> <BindingDB MonomerID>
50018835

> <BindingDB Ligand Name>
CHEMBL3286825

> <Target Name>
ALK tyrosine kinase receptor

> <Target Source Organism According to Curator or DataSource>
Homo sapiens

> <Ki (nM)>
<0.200000

> <IC50 (nM)>


> <Kd (nM)>


> <EC50 (nM)>


> <kon (M-1-s-1)>


> <koff (s-1)>


> <pH>


> <Temp C>


> <Curation/DataSource>
ChEMBL

> <Article DOI>
10.1021/jm500261q

> <BindingDB Entry DOI>
10.7270/Q2K35W68

> <PMID>
24819116

> <PubChem AID>


> <Patent Number>


> <Authors>
Johnson, TW; Richardson, PF; Bailey, S; Brooun, A; Burke, BJ; Collins, MR; Cui, JJ; Deal, JG; Deng, YL; Dinh, D; Engstrom, LD; He, M; Hoffman, J; Hoffman, RL; Huang, Q; Kania, RS; Kath, JC; Lam, H; Lam, JL; Le, PT; Lingardo, L; Liu, W; McTigue, M; Palmer, CL; Sach, NW; Smeal, T; Smith, GL; Stewart, AE; Timofeevski, S; Zhu, H; Zhu, J; Zou, HY; Edwards, MP

> <Date of publication>
6/12/2014

> <Date in BindingDB>
2/11/2015

> <Institution>
Pfizer Inc

> <Link to Ligand in BindingDB>
http://www.bindingdb.org/bind/chemsearch/marvin/MolStructure.jsp?monomerid=50018835

> <Link to Ligand-Target Pair in BindingDB>
http://www.bindingdb.org/jsp/dbsearch/PrimarySearch_ki.jsp?energyterm=kJ/mole&tag=pol&polymerid=5809&target=ALK+tyrosine+kinase+receptor&column=ki&startPg=0&Increment=50&submit=Search

> <Link to Ligand-Target Pair in BindingDB>
http://www.bindingdb.org/jsp/dbsearch/PrimarySearch_ki.jsp?energyterm=kJ/mole&tag=r21&monomerid=50018835&enzyme=ALK+tyrosine+kinase+receptor&column=ki&startPg=0&Increment=50&submit=Search

> <Ligand HET ID in PDB>


> <PDB ID(s) for Ligand-Target Complex>


> <PubChem CID of Ligand>
89807790

> <PubChem SID of Ligand>
103929888

> <ChEBI ID of Ligand>


> <ChEMBL ID of Ligand>
CHEMBL3286825

> <DrugBank ID of Ligand>


> <IUPHAR_GRAC ID of Ligand>


> <KEGG ID of Ligand>


> <ZINC ID of Ligand>
ZINC36080055

> <Number of Protein Chains in Target (bigger than 1 implies a multichain complex)>
1

> <BindingDB Target Chain Sequence>
MGAIGLLWLLPLLLSTAAVGSGMGTGQRAGSPAAGPPLQPREPLSYSRLQRKSLAVDFVVPSLFRVYARDLLLPPSSSELKAGRPEARGSLALDCAPLLRLLGPAPGVSWTAGSPAPAEARTLSRVLKGGSVRKLRRAKQLVLELGEEAILEGCVGPPGEAAVGLLQFNLSELFSWWIRQGEGRLRIRLMPEKKASEVGREGRLSAAIRASQPRLLFQIFGTGHSSLESPTNMPSPSPDYFTWNLTWIMKDSFPFLSHRSRYGLECSFDFPCELEYSPPLHDLRNQSWSWRRIPSEEASQMDLLDGPGAERSKEMPRGSFLLLNTSADSKHTILSPWMRSSSEHCTLAVSVHRHLQPSGRYIAQLLPHNEAAREILLMPTPGKHGWTVLQGRIGRPDNPFRVALEYISSGNRSLSAVDFFALKNCSEGTSPGSKMALQSSFTCWNGTVLQLGQACDFHQDCAQGEDESQMCRKLPVGFYCNFEDGFCGWTQGTLSPHTPQWQVRTLKDARFQDHQDHALLLSTTDVPASESATVTSATFPAPIKSSPCELRMSWLIRGVLRGNVSLVLVENKTGKEQGRMVWHVAAYEGLSLWQWMVLPLLDVSDRFWLQMVAWWGQGSRAIVAFDNISISLDCYLTISGEDKILQNTAPKSRNLFERNPNKELKPGENSPRQTPIFDPTVHWLFTTCGASGPHGPTQAQCNNAYQNSNLSVEVGSEGPLKGIQIWKVPATDTYSISGYGAAGGKGGKNTMMRSHGVSVLGIFNLEKDDMLYILVGQQGEDACPSTNQLIQKVCIGENNVIEEEIRVNRSVHEWAGGGGGGGGATYVFKMKDGVPVPLIIAAGGGGRAYGAKTDTFHPERLENNSSVLGLNGNSGAAGGGGGWNDNTSLLWAGKSLQEGATGGHSCPQAMKKWGWETRGGFGGGGGGCSSGGGGGGYIGGNAASNNDPEMDGEDGVSFISPLGILYTPALKVMEGHGEVNIKHYLNCSHCEVDECHMDPESHKVICFCDHGTVLAEDGVSCIVSPTPEPHLPLSLILSVVTSALVAALVLAFSGIMIVYRRKHQELQAMQMELQSPEYKLSKLRTSTIMTDYNPNYCFAGKTSSISDLKEVPRKNITLIRGLGHGAFGEVYEGQVSGMPNDPSPLQVAVKTLPEVCSEQDELDFLMEALIISKFNHQNIVRCIGVSLQSLPRFILLELMAGGDLKSFLRETRPRPSQPSSLAMLDLLHVARDIACGCQYLEENHFIHRDIAARNCLLTCPGPGRVAKIGDFGMARDIYRASYYRKGGCAMLPVKWMPPEAFMEGIFTSKTDTWSFGVLLWEIFSLGYMPYPSKSNQEVLEFVTSGGRMDPPKNCPGPVYRIMTQCWQHQPEDRPNFAIILERIEYCTQDPDVINTALPIEYGPLVEEEEKVPVRPKDPEGVPPLLVSQQAKREEERSPAAPPPLPTTSSGKAAKKPTAAEISVRVPRGPAVEGGHVNMAFSQSNPPSELHKVHGSRNKPTSLWNPTYGSWFTEKPTKKNNPIAKKEPHDRGNLGLEGSCTVPPNVATGRLPGASLLLEPSSLTANMKEVPLFRLRHFPCGNVNYGYQQQGLPLEAATAPGAGHYEDTILKSKNSMNQPGP

> <PDB ID(s) of Target Chain>
2XB7,2XBA,3AOX,5FTO,5FTQ,6E0R,6EBW,6EDL,6MX8,7JY4,7JYR,7JYS,7JYT,7LS0,7MZW,7MZY,7N00,7NX3,7NX4,8ARJ

> <UniProt (SwissProt) Recommended Name of Target Chain>
ALK tyrosine kinase receptor

> <UniProt (SwissProt) Entry Name of Target Chain>
ALK_HUMAN

> <UniProt (SwissProt) Primary ID of Target Chain>
Q9UM73

> <UniProt (SwissProt) Secondary ID(s) of Target Chain>
A6P4T4 A6P4V4 Q4ZFX9 Q53QQ6 Q53RZ4 Q59FI3 Q9Y4K6

> <UniProt (SwissProt) Alternative ID(s) of Target Chain>


> <UniProt (TrEMBL) Submitted Name of Target Chain>


> <UniProt (TrEMBL) Entry Name of Target Chain>


> <UniProt (TrEMBL) Primary ID of Target Chain>


> <UniProt (TrEMBL) Secondary ID(s) of Target Chain>


> <UniProt (TrEMBL) Alternative ID(s) of Target Chain>


$$$$

  Mrv0541 11241420102D          

 33 36  0  0  0  0            999 V2000
    7.9746   -9.5163    0.0000 C   0  0  0  0  0  0  0  0  0  0  0  0
    7.9641   -8.6912    0.0000 C   0  0  0  0  0  0  0  0  0  0  0  0
    7.2465   -8.2898    0.0000 C   0  0  0  0  0  0  0  0  0  0  0  0
    6.5352   -8.7093    0.0000 C   0  0  0  0  0  0  0  0  0  0  0  0
    6.5458   -9.5345    0.0000 C   0  0  0  0  0  0  0  0  0  0  0  0
    7.2675   -9.9400    0.0000 N   0  0  0  0  0  0  0  0  0  0  0  0
    5.8177   -8.3081    0.0000 O   0  0  0  0  0  0  0  0  0  0  0  0
    5.8071   -7.4829    0.0000 C   0  0  2  0  0  0  0  0  0  0  0  0
    6.5142   -7.0592    0.0000 C   0  0  0  0  0  0  0  0  0  0  0  0
    5.0895   -7.0774    0.0000 C   0  0  0  0  0  0  0  0  0  0  0  0
    5.0789   -6.2523    0.0000 C   0  0  0  0  0  0  0  0  0  0  0  0
    4.3572   -5.8510    0.0000 C   0  0  0  0  0  0  0  0  0  0  0  0
    3.6460   -6.2706    0.0000 C   0  0  0  0  0  0  0  0  0  0  0  0
    3.6565   -7.0957    0.0000 C   0  0  0  0  0  0  0  0  0  0  0  0
    4.3783   -7.5012    0.0000 C   0  0  0  0  0  0  0  0  0  0  0  0
    5.8642   -5.0133    0.0000 N   0  0  0  0  0  0  0  0  0  0  0  0
    5.7860   -5.8328    0.0000 N   0  0  0  0  0  0  0  0  0  0  0  0
    6.5410   -6.1550    0.0000 N   0  0  0  0  0  0  0  0  0  0  0  0
    7.0878   -5.5386    0.0000 C   0  0  0  0  0  0  0  0  0  0  0  0
    6.6681   -4.8315    0.0000 C   0  0  0  0  0  0  0  0  0  0  0  0
    2.9494   -7.5194    0.0000 F   0  0  0  0  0  0  0  0  0  0  0  0
    5.8387   -9.9583    0.0000 N   0  0  0  0  0  0  0  0  0  0  0  0
    8.6719   -8.2709    0.0000 C   0  0  0  0  0  0  0  0  0  0  0  0
    9.4298   -8.5915    0.0000 C   0  0  0  0  0  0  0  0  0  0  0  0
    9.9733   -7.9743    0.0000 N   0  0  0  0  0  0  0  0  0  0  0  0
    9.5488   -7.2665    0.0000 C   0  0  0  0  0  0  0  0  0  0  0  0
    8.7457   -7.4489    0.0000 S   0  0  0  0  0  0  0  0  0  0  0  0
    9.6132   -9.3958    0.0000 C   0  0  0  0  0  0  0  0  0  0  0  0
    9.8713   -6.5114    0.0000 C   0  0  2  0  0  0  0  0  0  0  0  0
   10.6863   -6.4132    0.0000 C   0  0  0  0  0  0  0  0  0  0  0  0
   11.0088   -5.6581    0.0000 O   0  0  0  0  0  0  0  0  0  0  0  0
    9.0726   -6.2944    0.0000 C   0  0  0  0  0  0  0  0  0  0  0  0
    9.8646   -5.6891    0.0000 O   0  0  0  0  0  0  0  0  0  0  0  0
  1  2  2  0  0  0  0
  2  3  1  0  0  0  0
  3  4  2  0  0  0  0
  4  5  1  0  0  0  0
  5  6  2  0  0  0  0
  1  6  1  0  0  0  0
  8  9  1  1  0  0  0
  8  7  1  0  0  0  0
 10 11  2  0  0  0  0
 11 12  1  0  0  0  0
 12 13  2  0  0  0  0
 13 14  1  0  0  0  0
 14 15  2  0  0  0  0
 10 15  1  0  0  0  0
 16 17  1  0  0  0  0
 17 18  1  0  0  0  0
 18 19  2  0  0  0  0
 19 20  1  0  0  0  0
 16 20  2  0  0  0  0
 11 17  1  0  0  0  0
 14 21  1  0  0  0  0
  8 10  1  0  0  0  0
  4  7  1  0  0  0  0
  5 22  1  0  0  0  0
  2 23  1  0  0  0  0
 23 24  2  0  0  0  0
 24 25  1  0  0  0  0
 25 26  2  0  0  0  0
 26 27  1  0  0  0  0
 27 23  1  0  0  0  0
 24 28  1  0  0  0  0
 29 26  1  0  0  0  0
 29 30  1  0  0  0  0
 30 31  1  0  0  0  0
 29 32  1  1  0  0  0
 29 33  1  6  0  0  0
M  END
> <From>
www.bindingDB.org

> <BindingDB Reactant_set_id>
50103563

> <Ligand InChI>
InChI=1S/C22H23FN6O3S/c1-12-19(33-21(28-12)22(3,31)11-30)14-8-18(20(24)25-10-14)32-13(2)16-9-15(23)4-5-17(16)29-26-6-7-27-29/h4-10,13,30-31H,11H2,1-3H3,(H2,24,25)/t13-,22-/m1/s1

> <Ligand InChI Key>
DIXMBHMNEHPFCX-MCMMXHMISA-N

> <BindingDB MonomerID>
50448785

> <BindingDB Ligand Name>
CHEMBL3128069

> <Target Name>
ALK tyrosine kinase receptor

> <Target Source Organism According to Curator or DataSource>
Homo sapiens

> <Ki (nM)>
 0.200000

> <IC50 (nM)>


> <Kd (nM)>


> <EC50 (nM)>


> <kon (M-1-s-1)>


> <koff (s-1)>


> <pH>


> <Temp C>


> <Curation/DataSource>
ChEMBL

> <Article DOI>
10.1021/jm500261q

> <BindingDB Entry DOI>
10.7270/Q2K35W68

> <PMID>
24819116

> <PubChem AID>


> <Patent Number>


> <Authors>
Johnson, TW; Richardson, PF; Bailey, S; Brooun, A; Burke, BJ; Collins, MR; Cui, JJ; Deal, JG; Deng, YL; Dinh, D; Engstrom, LD; He, M; Hoffman, J; Hoffman, RL; Huang, Q; Kania, RS; Kath, JC; Lam, H; Lam, JL; Le, PT; Lingardo, L; Liu, W; McTigue, M; Palmer, CL; Sach, NW; Smeal, T; Smith, GL; Stewart, AE; Timofeevski, S; Zhu, H; Zhu, J; Zou, HY; Edwards, MP

> <Date of publication>
6/12/2014

> <Date in BindingDB>
2/11/2015

> <Institution>
Pfizer Inc

> <Link to Ligand in BindingDB>
http://www.bindingdb.org/bind/chemsearch/marvin/MolStructure.jsp?monomerid=50448785

> <Link to Ligand-Target Pair in BindingDB>
http://www.bindingdb.org/jsp/dbsearch/PrimarySearch_ki.jsp?energyterm=kJ/mole&tag=pol&polymerid=5809&target=ALK+tyrosine+kinase+receptor&column=ki&startPg=0&Increment=50&submit=Search

> <Link to Ligand-Target Pair in BindingDB>
http://www.bindingdb.org/jsp/dbsearch/PrimarySearch_ki.jsp?energyterm=kJ/mole&tag=r21&monomerid=50448785&enzyme=ALK+tyrosine+kinase+receptor&column=ki&startPg=0&Increment=50&submit=Search

> <Ligand HET ID in PDB>


> <PDB ID(s) for Ligand-Target Complex>


> <PubChem CID of Ligand>
72710568

> <PubChem SID of Ligand>
194946681

> <ChEBI ID of Ligand>


> <ChEMBL ID of Ligand>
CHEMBL3128069

> <DrugBank ID of Ligand>


> <IUPHAR_GRAC ID of Ligand>


> <KEGG ID of Ligand>


> <ZINC ID of Ligand>


> <Number of Protein Chains in Target (bigger than 1 implies a multichain complex)>
1

> <BindingDB Target Chain Sequence>
MGAIGLLWLLPLLLSTAAVGSGMGTGQRAGSPAAGPPLQPREPLSYSRLQRKSLAVDFVVPSLFRVYARDLLLPPSSSELKAGRPEARGSLALDCAPLLRLLGPAPGVSWTAGSPAPAEARTLSRVLKGGSVRKLRRAKQLVLELGEEAILEGCVGPPGEAAVGLLQFNLSELFSWWIRQGEGRLRIRLMPEKKASEVGREGRLSAAIRASQPRLLFQIFGTGHSSLESPTNMPSPSPDYFTWNLTWIMKDSFPFLSHRSRYGLECSFDFPCELEYSPPLHDLRNQSWSWRRIPSEEASQMDLLDGPGAERSKEMPRGSFLLLNTSADSKHTILSPWMRSSSEHCTLAVSVHRHLQPSGRYIAQLLPHNEAAREILLMPTPGKHGWTVLQGRIGRPDNPFRVALEYISSGNRSLSAVDFFALKNCSEGTSPGSKMALQSSFTCWNGTVLQLGQACDFHQDCAQGEDESQMCRKLPVGFYCNFEDGFCGWTQGTLSPHTPQWQVRTLKDARFQDHQDHALLLSTTDVPASESATVTSATFPAPIKSSPCELRMSWLIRGVLRGNVSLVLVENKTGKEQGRMVWHVAAYEGLSLWQWMVLPLLDVSDRFWLQMVAWWGQGSRAIVAFDNISISLDCYLTISGEDKILQNTAPKSRNLFERNPNKELKPGENSPRQTPIFDPTVHWLFTTCGASGPHGPTQAQCNNAYQNSNLSVEVGSEGPLKGIQIWKVPATDTYSISGYGAAGGKGGKNTMMRSHGVSVLGIFNLEKDDMLYILVGQQGEDACPSTNQLIQKVCIGENNVIEEEIRVNRSVHEWAGGGGGGGGATYVFKMKDGVPVPLIIAAGGGGRAYGAKTDTFHPERLENNSSVLGLNGNSGAAGGGGGWNDNTSLLWAGKSLQEGATGGHSCPQAMKKWGWETRGGFGGGGGGCSSGGGGGGYIGGNAASNNDPEMDGEDGVSFISPLGILYTPALKVMEGHGEVNIKHYLNCSHCEVDECHMDPESHKVICFCDHGTVLAEDGVSCIVSPTPEPHLPLSLILSVVTSALVAALVLAFSGIMIVYRRKHQELQAMQMELQSPEYKLSKLRTSTIMTDYNPNYCFAGKTSSISDLKEVPRKNITLIRGLGHGAFGEVYEGQVSGMPNDPSPLQVAVKTLPEVCSEQDELDFLMEALIISKFNHQNIVRCIGVSLQSLPRFILLELMAGGDLKSFLRETRPRPSQPSSLAMLDLLHVARDIACGCQYLEENHFIHRDIAARNCLLTCPGPGRVAKIGDFGMARDIYRASYYRKGGCAMLPVKWMPPEAFMEGIFTSKTDTWSFGVLLWEIFSLGYMPYPSKSNQEVLEFVTSGGRMDPPKNCPGPVYRIMTQCWQHQPEDRPNFAIILERIEYCTQDPDVINTALPIEYGPLVEEEEKVPVRPKDPEGVPPLLVSQQAKREEERSPAAPPPLPTTSSGKAAKKPTAAEISVRVPRGPAVEGGHVNMAFSQSNPPSELHKVHGSRNKPTSLWNPTYGSWFTEKPTKKNNPIAKKEPHDRGNLGLEGSCTVPPNVATGRLPGASLLLEPSSLTANMKEVPLFRLRHFPCGNVNYGYQQQGLPLEAATAPGAGHYEDTILKSKNSMNQPGP

> <PDB ID(s) of Target Chain>
2XB7,2XBA,3AOX,5FTO,5FTQ,6E0R,6EBW,6EDL,6MX8,7JY4,7JYR,7JYS,7JYT,7LS0,7MZW,7MZY,7N00,7NX3,7NX4,8ARJ

> <UniProt (SwissProt) Recommended Name of Target Chain>
ALK tyrosine kinase receptor

> <UniProt (SwissProt) Entry Name of Target Chain>
ALK_HUMAN

> <UniProt (SwissProt) Primary ID of Target Chain>
Q9UM73

> <UniProt (SwissProt) Secondary ID(s) of Target Chain>
A6P4T4 A6P4V4 Q4ZFX9 Q53QQ6 Q53RZ4 Q59FI3 Q9Y4K6

> <UniProt (SwissProt) Alternative ID(s) of Target Chain>


> <UniProt (TrEMBL) Submitted Name of Target Chain>


> <UniProt (TrEMBL) Entry Name of Target Chain>


> <UniProt (TrEMBL) Primary ID of Target Chain>


> <UniProt (TrEMBL) Secondary ID(s) of Target Chain>


> <UniProt (TrEMBL) Alternative ID(s) of Target Chain>


$$$$

  SciTegic09261414532D

 27 30  0  0  0  0            999 V2000
   11.4214   -4.2807    0.0000 O   0  0
   10.7043   -4.6727    0.0000 C   0  0
   10.0064   -4.2477    0.0000 C   0  0
   10.0302   -3.4305    0.0000 C   0  0
    9.3330   -3.0056    0.0000 C   0  0
    8.6150   -3.3976    0.0000 C   0  0
    8.5984   -4.2188    0.0000 C   0  0
    9.2962   -4.6401    0.0000 C   0  0
   10.7484   -3.0408    0.0000 O   0  0
   11.4451   -3.4680    0.0000 C   0  0
   12.1634   -3.0782    0.0000 C   0  0
   12.8600   -3.5054    0.0000 C   0  0
    7.8827   -4.6133    0.0000 F   0  0
   14.2678   -3.5288    0.0000 C   0  0
   12.1010   -4.7050    0.0000 C   0  0
   13.5372   -4.7395    0.0000 C   0  0
   12.1012   -5.5244    0.0000 C   0  0
   12.8383   -4.3139    0.0000 C   0  0
   13.5181   -5.5575    0.0000 C   0  0
   12.8001   -5.9500    0.0000 N   0  0
   11.3832   -5.9169    0.0000 N   0  0
   14.2528   -4.3469    0.0000 C   0  0
   15.0239   -4.6165    0.0000 C   0  0
   15.5186   -3.9665    0.0000 N   0  0
   15.0532   -3.2952    0.0000 N   0  0
   15.2596   -5.3982    0.0000 C   0  0
   15.4948   -6.1808    0.0000 N   0  0
 15  1  1  0
  1  2  1  0
  2  3  1  0
  3  4  2  0
  4  5  1  0
  5  6  2  0
  6  7  1  0
  7  8  2  0
  8  3  1  0
  4  9  1  0
  9 10  1  0
 10 11  1  0
 11 12  1  0
 12 14  1  0
  7 13  1  0
 17 15  1  0
 15 18  2  0
 18 16  1  0
 16 19  2  0
 19 20  1  0
 17 20  2  0
 17 21  1  0
 16 22  1  0
 14 22  1  0
 22 23  2  0
 23 24  1  0
 24 25  1  0
 25 14  2  0
 26 27  3  0
 23 26  1  0
M  END
> <From>
www.bindingDB.org

> <BindingDB Reactant_set_id>
50103532

> <Ligand InChI>
InChI=1S/C19H16FN5O2/c20-13-3-4-16-12(6-13)10-27-17-7-11(9-23-19(17)22)18-14(2-1-5-26-16)24-25-15(18)8-21/h3-4,6-7,9H,1-2,5,10H2,(H2,22,23)(H,24,25)

> <Ligand InChI Key>
IXNVIDNGIIKHPP-UHFFFAOYSA-N

> <BindingDB MonomerID>
50018825

> <BindingDB Ligand Name>
CHEMBL3286815

> <Target Name>
ALK tyrosine kinase receptor

> <Target Source Organism According to Curator or DataSource>
Homo sapiens

> <Ki (nM)>
 0.220000

> <IC50 (nM)>


> <Kd (nM)>


> <EC50 (nM)>


> <kon (M-1-s-1)>


> <koff (s-1)>


> <pH>


> <Temp C>


> <Curation/DataSource>
ChEMBL

> <Article DOI>
10.1021/jm500261q

> <BindingDB Entry DOI>
10.7270/Q2K35W68

> <PMID>
24819116

> <PubChem AID>


> <Patent Number>


> <Authors>
Johnson, TW; Richardson, PF; Bailey, S; Brooun, A; Burke, BJ; Collins, MR; Cui, JJ; Deal, JG; Deng, YL; Dinh, D; Engstrom, LD; He, M; Hoffman, J; Hoffman, RL; Huang, Q; Kania, RS; Kath, JC; Lam, H; Lam, JL; Le, PT; Lingardo, L; Liu, W; McTigue, M; Palmer, CL; Sach, NW; Smeal, T; Smith, GL; Stewart, AE; Timofeevski, S; Zhu, H; Zhu, J; Zou, HY; Edwards, MP

> <Date of publication>
6/12/2014

> <Date in BindingDB>
2/11/2015

> <Institution>
Pfizer Inc

> <Link to Ligand in BindingDB>
http://www.bindingdb.org/bind/chemsearch/marvin/MolStructure.jsp?monomerid=50018825

> <Link to Ligand-Target Pair in BindingDB>
http://www.bindingdb.org/jsp/dbsearch/PrimarySearch_ki.jsp?energyterm=kJ/mole&tag=pol&polymerid=5809&target=ALK+tyrosine+kinase+receptor&column=ki&startPg=0&Increment=50&submit=Search

> <Link to Ligand-Target Pair in BindingDB>
http://www.bindingdb.org/jsp/dbsearch/PrimarySearch_ki.jsp?energyterm=kJ/mole&tag=r21&monomerid=50018825&enzyme=ALK+tyrosine+kinase+receptor&column=ki&startPg=0&Increment=50&submit=Search

> <Ligand HET ID in PDB>


> <PDB ID(s) for Ligand-Target Complex>


> <PubChem CID of Ligand>
71732094

> <PubChem SID of Ligand>
103929878

> <ChEBI ID of Ligand>


> <ChEMBL ID of Ligand>
CHEMBL3286815

> <DrugBank ID of Ligand>


> <IUPHAR_GRAC ID of Ligand>


> <KEGG ID of Ligand>


> <ZINC ID of Ligand>
ZINC33891532

> <Number of Protein Chains in Target (bigger than 1 implies a multichain complex)>
1

> <BindingDB Target Chain Sequence>
MGAIGLLWLLPLLLSTAAVGSGMGTGQRAGSPAAGPPLQPREPLSYSRLQRKSLAVDFVVPSLFRVYARDLLLPPSSSELKAGRPEARGSLALDCAPLLRLLGPAPGVSWTAGSPAPAEARTLSRVLKGGSVRKLRRAKQLVLELGEEAILEGCVGPPGEAAVGLLQFNLSELFSWWIRQGEGRLRIRLMPEKKASEVGREGRLSAAIRASQPRLLFQIFGTGHSSLESPTNMPSPSPDYFTWNLTWIMKDSFPFLSHRSRYGLECSFDFPCELEYSPPLHDLRNQSWSWRRIPSEEASQMDLLDGPGAERSKEMPRGSFLLLNTSADSKHTILSPWMRSSSEHCTLAVSVHRHLQPSGRYIAQLLPHNEAAREILLMPTPGKHGWTVLQGRIGRPDNPFRVALEYISSGNRSLSAVDFFALKNCSEGTSPGSKMALQSSFTCWNGTVLQLGQACDFHQDCAQGEDESQMCRKLPVGFYCNFEDGFCGWTQGTLSPHTPQWQVRTLKDARFQDHQDHALLLSTTDVPASESATVTSATFPAPIKSSPCELRMSWLIRGVLRGNVSLVLVENKTGKEQGRMVWHVAAYEGLSLWQWMVLPLLDVSDRFWLQMVAWWGQGSRAIVAFDNISISLDCYLTISGEDKILQNTAPKSRNLFERNPNKELKPGENSPRQTPIFDPTVHWLFTTCGASGPHGPTQAQCNNAYQNSNLSVEVGSEGPLKGIQIWKVPATDTYSISGYGAAGGKGGKNTMMRSHGVSVLGIFNLEKDDMLYILVGQQGEDACPSTNQLIQKVCIGENNVIEEEIRVNRSVHEWAGGGGGGGGATYVFKMKDGVPVPLIIAAGGGGRAYGAKTDTFHPERLENNSSVLGLNGNSGAAGGGGGWNDNTSLLWAGKSLQEGATGGHSCPQAMKKWGWETRGGFGGGGGGCSSGGGGGGYIGGNAASNNDPEMDGEDGVSFISPLGILYTPALKVMEGHGEVNIKHYLNCSHCEVDECHMDPESHKVICFCDHGTVLAEDGVSCIVSPTPEPHLPLSLILSVVTSALVAALVLAFSGIMIVYRRKHQELQAMQMELQSPEYKLSKLRTSTIMTDYNPNYCFAGKTSSISDLKEVPRKNITLIRGLGHGAFGEVYEGQVSGMPNDPSPLQVAVKTLPEVCSEQDELDFLMEALIISKFNHQNIVRCIGVSLQSLPRFILLELMAGGDLKSFLRETRPRPSQPSSLAMLDLLHVARDIACGCQYLEENHFIHRDIAARNCLLTCPGPGRVAKIGDFGMARDIYRASYYRKGGCAMLPVKWMPPEAFMEGIFTSKTDTWSFGVLLWEIFSLGYMPYPSKSNQEVLEFVTSGGRMDPPKNCPGPVYRIMTQCWQHQPEDRPNFAIILERIEYCTQDPDVINTALPIEYGPLVEEEEKVPVRPKDPEGVPPLLVSQQAKREEERSPAAPPPLPTTSSGKAAKKPTAAEISVRVPRGPAVEGGHVNMAFSQSNPPSELHKVHGSRNKPTSLWNPTYGSWFTEKPTKKNNPIAKKEPHDRGNLGLEGSCTVPPNVATGRLPGASLLLEPSSLTANMKEVPLFRLRHFPCGNVNYGYQQQGLPLEAATAPGAGHYEDTILKSKNSMNQPGP

> <PDB ID(s) of Target Chain>
2XB7,2XBA,3AOX,5FTO,5FTQ,6E0R,6EBW,6EDL,6MX8,7JY4,7JYR,7JYS,7JYT,7LS0,7MZW,7MZY,7N00,7NX3,7NX4,8ARJ

> <UniProt (SwissProt) Recommended Name of Target Chain>
ALK tyrosine kinase receptor

> <UniProt (SwissProt) Entry Name of Target Chain>
ALK_HUMAN

> <UniProt (SwissProt) Primary ID of Target Chain>
Q9UM73

> <UniProt (SwissProt) Secondary ID(s) of Target Chain>
A6P4T4 A6P4V4 Q4ZFX9 Q53QQ6 Q53RZ4 Q59FI3 Q9Y4K6

> <UniProt (SwissProt) Alternative ID(s) of Target Chain>


> <UniProt (TrEMBL) Submitted Name of Target Chain>


> <UniProt (TrEMBL) Entry Name of Target Chain>


> <UniProt (TrEMBL) Primary ID of Target Chain>


> <UniProt (TrEMBL) Secondary ID(s) of Target Chain>


> <UniProt (TrEMBL) Alternative ID(s) of Target Chain>


$$$$

  SciTegic09261414532D

 29 32  0  0  0  0            999 V2000
    4.9153   -4.1332    0.0000 O   0  0
    4.1943   -4.5280    0.0000 C   0  0  1  0  0  0
    3.4888   -4.0991    0.0000 C   0  0
    3.5133   -3.2753    0.0000 C   0  0
    2.8087   -2.8465    0.0000 C   0  0
    2.0868   -3.2413    0.0000 C   0  0
    2.0698   -4.0695    0.0000 C   0  0
    2.7751   -4.4945    0.0000 C   0  0
    4.2397   -2.8827    0.0000 C   0  0
    1.3461   -4.4669    0.0000 F   0  0
    7.7890   -3.3721    0.0000 C   0  0
    5.6018   -4.5613    0.0000 C   0  0
    7.0500   -4.5968    0.0000 C   0  0
    5.6020   -5.3875    0.0000 C   0  0
    6.3478   -4.1673    0.0000 C   0  0
    7.0303   -5.4215    0.0000 C   0  0
    6.3085   -5.8169    0.0000 N   0  0
    4.8758   -5.7828    0.0000 N   0  0
    7.7736   -4.2013    0.0000 C   0  0
    8.5501   -4.4702    0.0000 C   0  0
    9.0507   -3.8141    0.0000 N   0  0
    8.5802   -3.1403    0.0000 N   0  0
    8.7884   -5.2575    0.0000 C   0  0
    3.7756   -5.2408    0.0000 C   0  0
    4.9558   -3.3235    0.0000 O   0  0
    4.2634   -2.0421    0.0000 N   0  0
    5.0031   -1.6423    0.0000 C   0  0
    3.5473   -1.6014    0.0000 C   0  0
    8.8592   -2.3470    0.0000 C   0  0
 12  1  1  0
  1  2  1  0
  2  3  1  0
  3  4  2  0
  4  5  1  0
  5  6  2  0
  6  7  1  0
  7  8  2  0
  8  3  1  0
  4  9  1  0
  7 10  1  0
 14 12  1  0
 12 15  2  0
 15 13  1  0
 13 16  2  0
 16 17  1  0
 14 17  2  0
 14 18  1  0
 13 19  1  0
 11 19  2  0
 19 20  1  0
 20 21  2  0
 21 22  1  0
 22 11  1  0
 20 23  1  0
  2 24  1  6
  9 25  2  0
  9 26  1  0
 26 27  1  0
 26 28  1  0
 27 11  1  0
 22 29  1  0
M  END
> <From>
www.bindingDB.org

> <BindingDB Reactant_set_id>
50103652

> <Ligand InChI>
InChI=1S/C21H22FN5O2/c1-11-19-13-7-18(20(23)24-9-13)29-12(2)16-8-14(22)5-6-15(16)21(28)26(3)10-17(19)27(4)25-11/h5-9,12H,10H2,1-4H3,(H2,23,24)/t12-/m1/s1

> <Ligand InChI Key>
ASQDMAQHZGURLM-GFCCVEGCSA-N

> <BindingDB MonomerID>
50018815

> <BindingDB Ligand Name>
CHEMBL3286820

> <Target Name>
ALK tyrosine kinase receptor

> <Target Source Organism According to Curator or DataSource>
Homo sapiens

> <Ki (nM)>
 0.290000

> <IC50 (nM)>


> <Kd (nM)>


> <EC50 (nM)>


> <kon (M-1-s-1)>


> <koff (s-1)>


> <pH>


> <Temp C>


> <Curation/DataSource>
ChEMBL

> <Article DOI>
10.1021/jm500261q

> <BindingDB Entry DOI>
10.7270/Q2K35W68

> <PMID>
24819116

> <PubChem AID>


> <Patent Number>


> <Authors>
Johnson, TW; Richardson, PF; Bailey, S; Brooun, A; Burke, BJ; Collins, MR; Cui, JJ; Deal, JG; Deng, YL; Dinh, D; Engstrom, LD; He, M; Hoffman, J; Hoffman, RL; Huang, Q; Kania, RS; Kath, JC; Lam, H; Lam, JL; Le, PT; Lingardo, L; Liu, W; McTigue, M; Palmer, CL; Sach, NW; Smeal, T; Smith, GL; Stewart, AE; Timofeevski, S; Zhu, H; Zhu, J; Zou, HY; Edwards, MP

> <Date of publication>
6/12/2014

> <Date in BindingDB>
2/11/2015

> <Institution>
Pfizer Inc

> <Link to Ligand in BindingDB>
http://www.bindingdb.org/bind/chemsearch/marvin/MolStructure.jsp?monomerid=50018815

> <Link to Ligand-Target Pair in BindingDB>
http://www.bindingdb.org/jsp/dbsearch/PrimarySearch_ki.jsp?energyterm=kJ/mole&tag=pol&polymerid=5809&target=ALK+tyrosine+kinase+receptor&column=ki&startPg=0&Increment=50&submit=Search

> <Link to Ligand-Target Pair in BindingDB>
http://www.bindingdb.org/jsp/dbsearch/PrimarySearch_ki.jsp?energyterm=kJ/mole&tag=r21&monomerid=50018815&enzyme=ALK+tyrosine+kinase+receptor&column=ki&startPg=0&Increment=50&submit=Search

> <Ligand HET ID in PDB>
IV7

> <PDB ID(s) for Ligand-Target Complex>
4CMU

> <PubChem CID of Ligand>
90644193

> <PubChem SID of Ligand>
103929868

> <ChEBI ID of Ligand>


> <ChEMBL ID of Ligand>
CHEMBL3286820

> <DrugBank ID of Ligand>


> <IUPHAR_GRAC ID of Ligand>


> <KEGG ID of Ligand>


> <ZINC ID of Ligand>
ZINC33891509

> <Number of Protein Chains in Target (bigger than 1 implies a multichain complex)>
1

> <BindingDB Target Chain Sequence>
MGAIGLLWLLPLLLSTAAVGSGMGTGQRAGSPAAGPPLQPREPLSYSRLQRKSLAVDFVVPSLFRVYARDLLLPPSSSELKAGRPEARGSLALDCAPLLRLLGPAPGVSWTAGSPAPAEARTLSRVLKGGSVRKLRRAKQLVLELGEEAILEGCVGPPGEAAVGLLQFNLSELFSWWIRQGEGRLRIRLMPEKKASEVGREGRLSAAIRASQPRLLFQIFGTGHSSLESPTNMPSPSPDYFTWNLTWIMKDSFPFLSHRSRYGLECSFDFPCELEYSPPLHDLRNQSWSWRRIPSEEASQMDLLDGPGAERSKEMPRGSFLLLNTSADSKHTILSPWMRSSSEHCTLAVSVHRHLQPSGRYIAQLLPHNEAAREILLMPTPGKHGWTVLQGRIGRPDNPFRVALEYISSGNRSLSAVDFFALKNCSEGTSPGSKMALQSSFTCWNGTVLQLGQACDFHQDCAQGEDESQMCRKLPVGFYCNFEDGFCGWTQGTLSPHTPQWQVRTLKDARFQDHQDHALLLSTTDVPASESATVTSATFPAPIKSSPCELRMSWLIRGVLRGNVSLVLVENKTGKEQGRMVWHVAAYEGLSLWQWMVLPLLDVSDRFWLQMVAWWGQGSRAIVAFDNISISLDCYLTISGEDKILQNTAPKSRNLFERNPNKELKPGENSPRQTPIFDPTVHWLFTTCGASGPHGPTQAQCNNAYQNSNLSVEVGSEGPLKGIQIWKVPATDTYSISGYGAAGGKGGKNTMMRSHGVSVLGIFNLEKDDMLYILVGQQGEDACPSTNQLIQKVCIGENNVIEEEIRVNRSVHEWAGGGGGGGGATYVFKMKDGVPVPLIIAAGGGGRAYGAKTDTFHPERLENNSSVLGLNGNSGAAGGGGGWNDNTSLLWAGKSLQEGATGGHSCPQAMKKWGWETRGGFGGGGGGCSSGGGGGGYIGGNAASNNDPEMDGEDGVSFISPLGILYTPALKVMEGHGEVNIKHYLNCSHCEVDECHMDPESHKVICFCDHGTVLAEDGVSCIVSPTPEPHLPLSLILSVVTSALVAALVLAFSGIMIVYRRKHQELQAMQMELQSPEYKLSKLRTSTIMTDYNPNYCFAGKTSSISDLKEVPRKNITLIRGLGHGAFGEVYEGQVSGMPNDPSPLQVAVKTLPEVCSEQDELDFLMEALIISKFNHQNIVRCIGVSLQSLPRFILLELMAGGDLKSFLRETRPRPSQPSSLAMLDLLHVARDIACGCQYLEENHFIHRDIAARNCLLTCPGPGRVAKIGDFGMARDIYRASYYRKGGCAMLPVKWMPPEAFMEGIFTSKTDTWSFGVLLWEIFSLGYMPYPSKSNQEVLEFVTSGGRMDPPKNCPGPVYRIMTQCWQHQPEDRPNFAIILERIEYCTQDPDVINTALPIEYGPLVEEEEKVPVRPKDPEGVPPLLVSQQAKREEERSPAAPPPLPTTSSGKAAKKPTAAEISVRVPRGPAVEGGHVNMAFSQSNPPSELHKVHGSRNKPTSLWNPTYGSWFTEKPTKKNNPIAKKEPHDRGNLGLEGSCTVPPNVATGRLPGASLLLEPSSLTANMKEVPLFRLRHFPCGNVNYGYQQQGLPLEAATAPGAGHYEDTILKSKNSMNQPGP

> <PDB ID(s) of Target Chain>
2XB7,2XBA,3AOX,5FTO,5FTQ,6E0R,6EBW,6EDL,6MX8,7JY4,7JYR,7JYS,7JYT,7LS0,7MZW,7MZY,7N00,7NX3,7NX4,8ARJ

> <UniProt (SwissProt) Recommended Name of Target Chain>
ALK tyrosine kinase receptor

> <UniProt (SwissProt) Entry Name of Target Chain>
ALK_HUMAN

> <UniProt (SwissProt) Primary ID of Target Chain>
Q9UM73

> <UniProt (SwissProt) Secondary ID(s) of Target Chain>
A6P4T4 A6P4V4 Q4ZFX9 Q53QQ6 Q53RZ4 Q59FI3 Q9Y4K6

> <UniProt (SwissProt) Alternative ID(s) of Target Chain>


> <UniProt (TrEMBL) Submitted Name of Target Chain>


> <UniProt (TrEMBL) Entry Name of Target Chain>


> <UniProt (TrEMBL) Primary ID of Target Chain>


> <UniProt (TrEMBL) Secondary ID(s) of Target Chain>


> <UniProt (TrEMBL) Alternative ID(s) of Target Chain>


$$$$

  SciTegic09261414532D

 26 29  0  0  0  0            999 V2000
    5.3241   -4.5702    0.0000 C   0  0
    3.8880   -5.3552    0.0000 C   0  0
    3.9071   -4.5371    0.0000 C   0  0
    4.6251   -4.1446    0.0000 C   0  0
    5.3049   -5.3883    0.0000 C   0  0
    4.5869   -5.7808    0.0000 N   0  0
    3.1700   -5.7477    0.0000 N   0  0
    3.2082   -4.1115    0.0000 O   0  0
    3.2276   -3.2932    0.0000 C   0  0
    2.5248   -2.8739    0.0000 C   0  0
    1.8104   -3.2728    0.0000 C   0  0
    1.1077   -2.8536    0.0000 C   0  0
    1.1194   -2.0354    0.0000 C   0  0
    1.8339   -1.6364    0.0000 C   0  0
    2.5366   -2.0557    0.0000 C   0  0
    0.3932   -3.2525    0.0000 F   0  0
    6.0578   -3.3611    0.0000 C   0  0
    6.0396   -4.1777    0.0000 C   0  0
    6.8107   -4.4473    0.0000 C   0  0
    7.3054   -3.7973    0.0000 N   0  0
    6.8400   -3.1260    0.0000 N   0  0
    3.2501   -1.6573    0.0000 O   0  0
    3.9519   -2.0760    0.0000 C   0  0
    4.6654   -1.6776    0.0000 C   0  0
    7.0465   -5.2289    0.0000 C   0  0
    7.2817   -6.0116    0.0000 N   0  0
  2  3  1  0
  3  4  2  0
  4  1  1  0
  1  5  2  0
  5  6  1  0
  2  6  2  0
  2  7  1  0
  8  9  1  0
 10 11  1  0
 11 12  2  0
 12 13  1  0
 13 14  2  0
 14 15  1  0
 10 15  2  0
 12 16  1  0
  9 10  1  0
  3  8  1  0
  1 18  1  0
 17 18  1  0
 18 19  2  0
 19 20  1  0
 20 21  1  0
 21 17  2  0
 15 22  1  0
 22 23  1  0
 23 24  1  0
 24 17  1  0
 25 26  3  0
 19 25  1  0
M  END
> <From>
www.bindingDB.org

> <BindingDB Reactant_set_id>
50103529

> <Ligand InChI>
InChI=1S/C18H14FN5O2/c19-12-1-2-15-11(5-12)9-26-16-6-10(8-22-18(16)21)17-13(3-4-25-15)23-24-14(17)7-20/h1-2,5-6,8H,3-4,9H2,(H2,21,22)(H,23,24)

> <Ligand InChI Key>
JPFKGTKMTHTBAD-UHFFFAOYSA-N

> <BindingDB MonomerID>
50018824

> <BindingDB Ligand Name>
CHEMBL3286814

> <Target Name>
ALK tyrosine kinase receptor

> <Target Source Organism According to Curator or DataSource>
Homo sapiens

> <Ki (nM)>
 0.360000

> <IC50 (nM)>


> <Kd (nM)>


> <EC50 (nM)>


> <kon (M-1-s-1)>


> <koff (s-1)>


> <pH>


> <Temp C>


> <Curation/DataSource>
ChEMBL

> <Article DOI>
10.1021/jm500261q

> <BindingDB Entry DOI>
10.7270/Q2K35W68

> <PMID>
24819116

> <PubChem AID>


> <Patent Number>


> <Authors>
Johnson, TW; Richardson, PF; Bailey, S; Brooun, A; Burke, BJ; Collins, MR; Cui, JJ; Deal, JG; Deng, YL; Dinh, D; Engstrom, LD; He, M; Hoffman, J; Hoffman, RL; Huang, Q; Kania, RS; Kath, JC; Lam, H; Lam, JL; Le, PT; Lingardo, L; Liu, W; McTigue, M; Palmer, CL; Sach, NW; Smeal, T; Smith, GL; Stewart, AE; Timofeevski, S; Zhu, H; Zhu, J; Zou, HY; Edwards, MP

> <Date of publication>
6/12/2014

> <Date in BindingDB>
2/11/2015

> <Institution>
Pfizer Inc

> <Link to Ligand in BindingDB>
http://www.bindingdb.org/bind/chemsearch/marvin/MolStructure.jsp?monomerid=50018824

> <Link to Ligand-Target Pair in BindingDB>
http://www.bindingdb.org/jsp/dbsearch/PrimarySearch_ki.jsp?energyterm=kJ/mole&tag=pol&polymerid=5809&target=ALK+tyrosine+kinase+receptor&column=ki&startPg=0&Increment=50&submit=Search

> <Link to Ligand-Target Pair in BindingDB>
http://www.bindingdb.org/jsp/dbsearch/PrimarySearch_ki.jsp?energyterm=kJ/mole&tag=r21&monomerid=50018824&enzyme=ALK+tyrosine+kinase+receptor&column=ki&startPg=0&Increment=50&submit=Search

> <Ligand HET ID in PDB>


> <PDB ID(s) for Ligand-Target Complex>


> <PubChem CID of Ligand>
71732095

> <PubChem SID of Ligand>
103929877

> <ChEBI ID of Ligand>


> <ChEMBL ID of Ligand>
CHEMBL3286814

> <DrugBank ID of Ligand>


> <IUPHAR_GRAC ID of Ligand>


> <KEGG ID of Ligand>


> <ZINC ID of Ligand>
ZINC33891530

> <Number of Protein Chains in Target (bigger than 1 implies a multichain complex)>
1

> <BindingDB Target Chain Sequence>
MGAIGLLWLLPLLLSTAAVGSGMGTGQRAGSPAAGPPLQPREPLSYSRLQRKSLAVDFVVPSLFRVYARDLLLPPSSSELKAGRPEARGSLALDCAPLLRLLGPAPGVSWTAGSPAPAEARTLSRVLKGGSVRKLRRAKQLVLELGEEAILEGCVGPPGEAAVGLLQFNLSELFSWWIRQGEGRLRIRLMPEKKASEVGREGRLSAAIRASQPRLLFQIFGTGHSSLESPTNMPSPSPDYFTWNLTWIMKDSFPFLSHRSRYGLECSFDFPCELEYSPPLHDLRNQSWSWRRIPSEEASQMDLLDGPGAERSKEMPRGSFLLLNTSADSKHTILSPWMRSSSEHCTLAVSVHRHLQPSGRYIAQLLPHNEAAREILLMPTPGKHGWTVLQGRIGRPDNPFRVALEYISSGNRSLSAVDFFALKNCSEGTSPGSKMALQSSFTCWNGTVLQLGQACDFHQDCAQGEDESQMCRKLPVGFYCNFEDGFCGWTQGTLSPHTPQWQVRTLKDARFQDHQDHALLLSTTDVPASESATVTSATFPAPIKSSPCELRMSWLIRGVLRGNVSLVLVENKTGKEQGRMVWHVAAYEGLSLWQWMVLPLLDVSDRFWLQMVAWWGQGSRAIVAFDNISISLDCYLTISGEDKILQNTAPKSRNLFERNPNKELKPGENSPRQTPIFDPTVHWLFTTCGASGPHGPTQAQCNNAYQNSNLSVEVGSEGPLKGIQIWKVPATDTYSISGYGAAGGKGGKNTMMRSHGVSVLGIFNLEKDDMLYILVGQQGEDACPSTNQLIQKVCIGENNVIEEEIRVNRSVHEWAGGGGGGGGATYVFKMKDGVPVPLIIAAGGGGRAYGAKTDTFHPERLENNSSVLGLNGNSGAAGGGGGWNDNTSLLWAGKSLQEGATGGHSCPQAMKKWGWETRGGFGGGGGGCSSGGGGGGYIGGNAASNNDPEMDGEDGVSFISPLGILYTPALKVMEGHGEVNIKHYLNCSHCEVDECHMDPESHKVICFCDHGTVLAEDGVSCIVSPTPEPHLPLSLILSVVTSALVAALVLAFSGIMIVYRRKHQELQAMQMELQSPEYKLSKLRTSTIMTDYNPNYCFAGKTSSISDLKEVPRKNITLIRGLGHGAFGEVYEGQVSGMPNDPSPLQVAVKTLPEVCSEQDELDFLMEALIISKFNHQNIVRCIGVSLQSLPRFILLELMAGGDLKSFLRETRPRPSQPSSLAMLDLLHVARDIACGCQYLEENHFIHRDIAARNCLLTCPGPGRVAKIGDFGMARDIYRASYYRKGGCAMLPVKWMPPEAFMEGIFTSKTDTWSFGVLLWEIFSLGYMPYPSKSNQEVLEFVTSGGRMDPPKNCPGPVYRIMTQCWQHQPEDRPNFAIILERIEYCTQDPDVINTALPIEYGPLVEEEEKVPVRPKDPEGVPPLLVSQQAKREEERSPAAPPPLPTTSSGKAAKKPTAAEISVRVPRGPAVEGGHVNMAFSQSNPPSELHKVHGSRNKPTSLWNPTYGSWFTEKPTKKNNPIAKKEPHDRGNLGLEGSCTVPPNVATGRLPGASLLLEPSSLTANMKEVPLFRLRHFPCGNVNYGYQQQGLPLEAATAPGAGHYEDTILKSKNSMNQPGP

> <PDB ID(s) of Target Chain>
2XB7,2XBA,3AOX,5FTO,5FTQ,6E0R,6EBW,6EDL,6MX8,7JY4,7JYR,7JYS,7JYT,7LS0,7MZW,7MZY,7N00,7NX3,7NX4,8ARJ

> <UniProt (SwissProt) Recommended Name of Target Chain>
ALK tyrosine kinase receptor

> <UniProt (SwissProt) Entry Name of Target Chain>
ALK_HUMAN

> <UniProt (SwissProt) Primary ID of Target Chain>
Q9UM73

> <UniProt (SwissProt) Secondary ID(s) of Target Chain>
A6P4T4 A6P4V4 Q4ZFX9 Q53QQ6 Q53RZ4 Q59FI3 Q9Y4K6

> <UniProt (SwissProt) Alternative ID(s) of Target Chain>


> <UniProt (TrEMBL) Submitted Name of Target Chain>


> <UniProt (TrEMBL) Entry Name of Target Chain>


> <UniProt (TrEMBL) Primary ID of Target Chain>


> <UniProt (TrEMBL) Secondary ID(s) of Target Chain>


> <UniProt (TrEMBL) Alternative ID(s) of Target Chain>


$$$$

  SciTegic09261414532D

 26 29  0  0  0  0            999 V2000
    6.2373  -10.4220    0.0000 C   0  0
    4.7875  -11.2145    0.0000 C   0  0
    4.8069  -10.3886    0.0000 C   0  0
    5.5317   -9.9924    0.0000 C   0  0
    6.2180  -11.2479    0.0000 C   0  0
    5.4932  -11.6441    0.0000 N   0  0
    4.0627  -11.6107    0.0000 N   0  0
    4.1012   -9.9590    0.0000 O   0  0
    6.9780   -9.2013    0.0000 C   0  0
    6.9597  -10.0258    0.0000 C   0  0
    7.7381  -10.2980    0.0000 N   0  0
    8.2376   -9.6417    0.0000 N   0  0
    7.7678   -8.9641    0.0000 C   0  0
    7.9755  -11.0880    0.0000 C   0  0
    3.3774  -10.3546    0.0000 C   0  0
    2.6727   -9.9255    0.0000 C   0  0
    2.6968   -9.1007    0.0000 C   0  0
    1.9930   -8.6716    0.0000 C   0  0
    1.2681   -9.0673    0.0000 C   0  0
    1.2514   -9.8965    0.0000 C   0  0
    1.9559  -10.3217    0.0000 C   0  0
    3.4219   -8.7071    0.0000 O   0  0
    4.1252   -9.1384    0.0000 C   0  0
    4.8503   -8.7450    0.0000 C   0  0
    5.5537   -9.1762    0.0000 C   0  0
    0.5289  -10.2946    0.0000 F   0  0
  2  3  1  0
  3  4  2  0
  4  1  1  0
  1  5  2  0
  5  6  1  0
  2  6  2  0
  2  7  1  0
  3  8  1  0
  1 10  1  0
  9 10  2  0
 10 11  1  0
 11 12  1  0
 12 13  2  0
 13  9  1  0
 11 14  1  0
  8 15  1  0
 15 16  1  0
 16 17  2  0
 17 18  1  0
 18 19  2  0
 19 20  1  0
 20 21  2  0
 21 16  1  0
 17 22  1  0
 22 23  1  0
 23 24  1  0
 24 25  1  0
 25  9  1  0
 20 26  1  0
M  END
> <From>
www.bindingDB.org

> <BindingDB Reactant_set_id>
50103535

> <Ligand InChI>
InChI=1S/C19H19FN4O2/c1-24-18-12(10-23-24)3-2-6-25-16-5-4-15(20)7-14(16)11-26-17-8-13(18)9-22-19(17)21/h4-5,7-10H,2-3,6,11H2,1H3,(H2,21,22)

> <Ligand InChI Key>
LMZGMLCWYMKZIR-UHFFFAOYSA-N

> <BindingDB MonomerID>
50018826

> <BindingDB Ligand Name>
CHEMBL3286816

> <Target Name>
ALK tyrosine kinase receptor

> <Target Source Organism According to Curator or DataSource>
Homo sapiens

> <Ki (nM)>
 0.380000

> <IC50 (nM)>


> <Kd (nM)>


> <EC50 (nM)>


> <kon (M-1-s-1)>


> <koff (s-1)>


> <pH>


> <Temp C>


> <Curation/DataSource>
ChEMBL

> <Article DOI>
10.1021/jm500261q

> <BindingDB Entry DOI>
10.7270/Q2K35W68

> <PMID>
24819116

> <PubChem AID>


> <Patent Number>


> <Authors>
Johnson, TW; Richardson, PF; Bailey, S; Brooun, A; Burke, BJ; Collins, MR; Cui, JJ; Deal, JG; Deng, YL; Dinh, D; Engstrom, LD; He, M; Hoffman, J; Hoffman, RL; Huang, Q; Kania, RS; Kath, JC; Lam, H; Lam, JL; Le, PT; Lingardo, L; Liu, W; McTigue, M; Palmer, CL; Sach, NW; Smeal, T; Smith, GL; Stewart, AE; Timofeevski, S; Zhu, H; Zhu, J; Zou, HY; Edwards, MP

> <Date of publication>
6/12/2014

> <Date in BindingDB>
2/11/2015

> <Institution>
Pfizer Inc

> <Link to Ligand in BindingDB>
http://www.bindingdb.org/bind/chemsearch/marvin/MolStructure.jsp?monomerid=50018826

> <Link to Ligand-Target Pair in BindingDB>
http://www.bindingdb.org/jsp/dbsearch/PrimarySearch_ki.jsp?energyterm=kJ/mole&tag=pol&polymerid=5809&target=ALK+tyrosine+kinase+receptor&column=ki&startPg=0&Increment=50&submit=Search

> <Link to Ligand-Target Pair in BindingDB>
http://www.bindingdb.org/jsp/dbsearch/PrimarySearch_ki.jsp?energyterm=kJ/mole&tag=r21&monomerid=50018826&enzyme=ALK+tyrosine+kinase+receptor&column=ki&startPg=0&Increment=50&submit=Search

> <Ligand HET ID in PDB>


> <PDB ID(s) for Ligand-Target Complex>


> <PubChem CID of Ligand>
71732092

> <PubChem SID of Ligand>
103929879

> <ChEBI ID of Ligand>


> <ChEMBL ID of Ligand>
CHEMBL3286816

> <DrugBank ID of Ligand>


> <IUPHAR_GRAC ID of Ligand>


> <KEGG ID of Ligand>


> <ZINC ID of Ligand>
ZINC33891511

> <Number of Protein Chains in Target (bigger than 1 implies a multichain complex)>
1

> <BindingDB Target Chain Sequence>
MGAIGLLWLLPLLLSTAAVGSGMGTGQRAGSPAAGPPLQPREPLSYSRLQRKSLAVDFVVPSLFRVYARDLLLPPSSSELKAGRPEARGSLALDCAPLLRLLGPAPGVSWTAGSPAPAEARTLSRVLKGGSVRKLRRAKQLVLELGEEAILEGCVGPPGEAAVGLLQFNLSELFSWWIRQGEGRLRIRLMPEKKASEVGREGRLSAAIRASQPRLLFQIFGTGHSSLESPTNMPSPSPDYFTWNLTWIMKDSFPFLSHRSRYGLECSFDFPCELEYSPPLHDLRNQSWSWRRIPSEEASQMDLLDGPGAERSKEMPRGSFLLLNTSADSKHTILSPWMRSSSEHCTLAVSVHRHLQPSGRYIAQLLPHNEAAREILLMPTPGKHGWTVLQGRIGRPDNPFRVALEYISSGNRSLSAVDFFALKNCSEGTSPGSKMALQSSFTCWNGTVLQLGQACDFHQDCAQGEDESQMCRKLPVGFYCNFEDGFCGWTQGTLSPHTPQWQVRTLKDARFQDHQDHALLLSTTDVPASESATVTSATFPAPIKSSPCELRMSWLIRGVLRGNVSLVLVENKTGKEQGRMVWHVAAYEGLSLWQWMVLPLLDVSDRFWLQMVAWWGQGSRAIVAFDNISISLDCYLTISGEDKILQNTAPKSRNLFERNPNKELKPGENSPRQTPIFDPTVHWLFTTCGASGPHGPTQAQCNNAYQNSNLSVEVGSEGPLKGIQIWKVPATDTYSISGYGAAGGKGGKNTMMRSHGVSVLGIFNLEKDDMLYILVGQQGEDACPSTNQLIQKVCIGENNVIEEEIRVNRSVHEWAGGGGGGGGATYVFKMKDGVPVPLIIAAGGGGRAYGAKTDTFHPERLENNSSVLGLNGNSGAAGGGGGWNDNTSLLWAGKSLQEGATGGHSCPQAMKKWGWETRGGFGGGGGGCSSGGGGGGYIGGNAASNNDPEMDGEDGVSFISPLGILYTPALKVMEGHGEVNIKHYLNCSHCEVDECHMDPESHKVICFCDHGTVLAEDGVSCIVSPTPEPHLPLSLILSVVTSALVAALVLAFSGIMIVYRRKHQELQAMQMELQSPEYKLSKLRTSTIMTDYNPNYCFAGKTSSISDLKEVPRKNITLIRGLGHGAFGEVYEGQVSGMPNDPSPLQVAVKTLPEVCSEQDELDFLMEALIISKFNHQNIVRCIGVSLQSLPRFILLELMAGGDLKSFLRETRPRPSQPSSLAMLDLLHVARDIACGCQYLEENHFIHRDIAARNCLLTCPGPGRVAKIGDFGMARDIYRASYYRKGGCAMLPVKWMPPEAFMEGIFTSKTDTWSFGVLLWEIFSLGYMPYPSKSNQEVLEFVTSGGRMDPPKNCPGPVYRIMTQCWQHQPEDRPNFAIILERIEYCTQDPDVINTALPIEYGPLVEEEEKVPVRPKDPEGVPPLLVSQQAKREEERSPAAPPPLPTTSSGKAAKKPTAAEISVRVPRGPAVEGGHVNMAFSQSNPPSELHKVHGSRNKPTSLWNPTYGSWFTEKPTKKNNPIAKKEPHDRGNLGLEGSCTVPPNVATGRLPGASLLLEPSSLTANMKEVPLFRLRHFPCGNVNYGYQQQGLPLEAATAPGAGHYEDTILKSKNSMNQPGP

> <PDB ID(s) of Target Chain>
2XB7,2XBA,3AOX,5FTO,5FTQ,6E0R,6EBW,6EDL,6MX8,7JY4,7JYR,7JYS,7JYT,7LS0,7MZW,7MZY,7N00,7NX3,7NX4,8ARJ

> <UniProt (SwissProt) Recommended Name of Target Chain>
ALK tyrosine kinase receptor

> <UniProt (SwissProt) Entry Name of Target Chain>
ALK_HUMAN

> <UniProt (SwissProt) Primary ID of Target Chain>
Q9UM73

> <UniProt (SwissProt) Secondary ID(s) of Target Chain>
A6P4T4 A6P4V4 Q4ZFX9 Q53QQ6 Q53RZ4 Q59FI3 Q9Y4K6

> <UniProt (SwissProt) Alternative ID(s) of Target Chain>


> <UniProt (TrEMBL) Submitted Name of Target Chain>


> <UniProt (TrEMBL) Entry Name of Target Chain>


> <UniProt (TrEMBL) Primary ID of Target Chain>


> <UniProt (TrEMBL) Secondary ID(s) of Target Chain>


> <UniProt (TrEMBL) Alternative ID(s) of Target Chain>


$$$$

  SciTegic09261414532D

 31 35  0  0  0  0            999 V2000
   15.5368   -5.1482    0.0000 O   0  0
   14.8166   -5.5427    0.0000 C   0  0  1  0  0  0
   14.1117   -5.1142    0.0000 C   0  0
   14.1361   -4.2910    0.0000 C   0  0
   13.4320   -3.8625    0.0000 C   0  0
   12.7108   -4.2571    0.0000 C   0  0
   12.6937   -5.0845    0.0000 C   0  0
   13.3985   -5.5092    0.0000 C   0  0
   14.8619   -3.8987    0.0000 C   0  0
   11.9707   -5.4816    0.0000 F   0  0
   18.4083   -4.3878    0.0000 C   0  0
   16.2229   -5.5760    0.0000 C   0  0
   17.6699   -5.6114    0.0000 C   0  0
   16.2230   -6.4014    0.0000 C   0  0
   16.9682   -5.1822    0.0000 C   0  0
   17.6502   -6.4355    0.0000 C   0  0
   16.9290   -6.8306    0.0000 N   0  0
   15.4975   -6.7965    0.0000 N   0  0
   18.3929   -5.2162    0.0000 C   0  0
   19.1687   -5.4850    0.0000 C   0  0
   19.6688   -4.8293    0.0000 N   0  0
   19.1989   -4.1562    0.0000 N   0  0
   14.3982   -6.2549    0.0000 C   0  0
   15.5774   -4.3392    0.0000 O   0  0
   14.8856   -3.0589    0.0000 N   0  0
   15.6247   -2.6594    0.0000 C   0  0
   14.1700   -2.6184    0.0000 C   0  0
   19.4776   -3.3635    0.0000 C   0  0
   19.4113   -6.2894    0.0000 C   0  0
   19.2200   -7.1059    0.0000 C   0  0
   20.0245   -6.8634    0.0000 C   0  0
 12  1  1  0
  1  2  1  0
  2  3  1  0
  3  4  2  0
  4  5  1  0
  5  6  2  0
  6  7  1  0
  7  8  2  0
  8  3  1  0
  4  9  1  0
  7 10  1  0
 14 12  1  0
 12 15  2  0
 15 13  1  0
 13 16  2  0
 16 17  1  0
 14 17  2  0
 14 18  1  0
 13 19  1  0
 11 19  2  0
 19 20  1  0
 20 21  2  0
 21 22  1  0
 22 11  1  0
  2 23  1  6
  9 24  2  0
  9 25  1  0
 25 26  1  0
 25 27  1  0
 26 11  1  0
 22 28  1  0
 20 29  1  0
 30 29  1  0
 31 30  1  0
 29 31  1  0
M  END
> <From>
www.bindingDB.org

> <BindingDB Reactant_set_id>
50103599

> <Ligand InChI>
InChI=1S/C23H24FN5O2/c1-12-17-9-15(24)6-7-16(17)23(30)28(2)11-18-20(21(13-4-5-13)27-29(18)3)14-8-19(31-12)22(25)26-10-14/h6-10,12-13H,4-5,11H2,1-3H3,(H2,25,26)/t12-/m1/s1

> <Ligand InChI Key>
SBEYSILWLYDNSN-GFCCVEGCSA-N

> <BindingDB MonomerID>
50018839

> <BindingDB Ligand Name>
CHEMBL3286829

> <Target Name>
BDNF/NT-3 growth factors receptor

> <Target Source Organism According to Curator or DataSource>
Human

> <Ki (nM)>
 0.400000

> <IC50 (nM)>


> <Kd (nM)>


> <EC50 (nM)>


> <kon (M-1-s-1)>


> <koff (s-1)>


> <pH>


> <Temp C>


> <Curation/DataSource>
ChEMBL

> <Article DOI>
10.1021/jm500261q

> <BindingDB Entry DOI>
10.7270/Q2K35W68

> <PMID>
24819116

> <PubChem AID>


> <Patent Number>


> <Authors>
Johnson, TW; Richardson, PF; Bailey, S; Brooun, A; Burke, BJ; Collins, MR; Cui, JJ; Deal, JG; Deng, YL; Dinh, D; Engstrom, LD; He, M; Hoffman, J; Hoffman, RL; Huang, Q; Kania, RS; Kath, JC; Lam, H; Lam, JL; Le, PT; Lingardo, L; Liu, W; McTigue, M; Palmer, CL; Sach, NW; Smeal, T; Smith, GL; Stewart, AE; Timofeevski, S; Zhu, H; Zhu, J; Zou, HY; Edwards, MP

> <Date of publication>
6/12/2014

> <Date in BindingDB>
2/11/2015

> <Institution>
Pfizer Inc

> <Link to Ligand in BindingDB>
http://www.bindingdb.org/bind/chemsearch/marvin/MolStructure.jsp?monomerid=50018839

> <Link to Ligand-Target Pair in BindingDB>
http://www.bindingdb.org/jsp/dbsearch/PrimarySearch_ki.jsp?energyterm=kJ/mole&tag=pol&polymerid=6476&target=BDNF%2FNT-3+growth+factors+receptor&column=ki&startPg=0&Increment=50&submit=Search

> <Link to Ligand-Target Pair in BindingDB>
http://www.bindingdb.org/jsp/dbsearch/PrimarySearch_ki.jsp?energyterm=kJ/mole&tag=r21&monomerid=50018839&enzyme=BDNF%2FNT-3+growth+factors+receptor&column=ki&startPg=0&Increment=50&submit=Search

> <Ligand HET ID in PDB>
J99

> <PDB ID(s) for Ligand-Target Complex>
4CTC

> <PubChem CID of Ligand>
73819548

> <PubChem SID of Ligand>
103929892

> <ChEBI ID of Ligand>


> <ChEMBL ID of Ligand>
CHEMBL3286829

> <DrugBank ID of Ligand>


> <IUPHAR_GRAC ID of Ligand>


> <KEGG ID of Ligand>


> <ZINC ID of Ligand>
ZINC33891499

> <Number of Protein Chains in Target (bigger than 1 implies a multichain complex)>
1

> <BindingDB Target Chain Sequence>
MSSWIRWHGPAMARLWGFCWLVVGFWRAAFACPTSCKCSASRIWCSDPSPGIVAFPRLEPNSVDPENITEIFIANQKRLEIINEDDVEAYVGLRNLTIVDSGLKFVAHKAFLKNSNLQHINFTRNKLTSLSRKHFRHLDLSELILVGNPFTCSCDIMWIKTLQEAKSSPDTQDLYCLNESSKNIPLANLQIPNCGLPSANLAAPNLTVEEGKSITLSCSVAGDPVPNMYWDVGNLVSKHMNETSHTQGSLRITNISSDDSGKQISCVAENLVGEDQDSVNLTVHFAPTITFLESPTSDHHWCIPFTVKGNPKPALQWFYNGAILNESKYICTKIHVTNHTEYHGCLQLDNPTHMNNGDYTLIAKNEYGKDEKQISAHFMGWPGIDDGANPNYPDVIYEDYGTAANDIGDTTNRSNEIPSTDVTDKTGREHLSVYAVVVIASVVGFCLLVMLFLLKLARHSKFGMKGPASVISNDDDSASPLHHISNGSNTPSSSEGGPDAVIIGMTKIPVIENPQYFGITNSQLKPDTFVQHIKRHNIVLKRELGEGAFGKVFLAECYNLCPEQDKILVAVKTLKDASDNARKDFHREAELLTNLQHEHIVKFYGVCVEGDPLIMVFEYMKHGDLNKFLRAHGPDAVLMAEGNPPTELTQSQMLHIAQQIAAGMVYLASQHFVHRDLATRNCLVGENLLVKIGDFGMSRDVYSTDYYRVGGHTMLPIRWMPPESIMYRKFTTESDVWSLGVVLWEIFTYGKQPWYQLSNNEVIECITQGRVLQRPRTCPQEVYELMLGCWQREPHMRKNIKGIHTLLQNLAKASPVYLDILG

> <PDB ID(s) of Target Chain>
1WWB,4ASZ,4AT3,4AT4,4AT5,5MO9

> <UniProt (SwissProt) Recommended Name of Target Chain>
BDNF/NT-3 growth factors receptor

> <UniProt (SwissProt) Entry Name of Target Chain>
NTRK2_HUMAN

> <UniProt (SwissProt) Primary ID of Target Chain>
Q16620

> <UniProt (SwissProt) Secondary ID(s) of Target Chain>
B1ANZ4 B4DFV9 Q16675 Q59GJ1 Q8WXJ5 Q8WXJ6 Q8WXJ7

> <UniProt (SwissProt) Alternative ID(s) of Target Chain>


> <UniProt (TrEMBL) Submitted Name of Target Chain>


> <UniProt (TrEMBL) Entry Name of Target Chain>


> <UniProt (TrEMBL) Primary ID of Target Chain>


> <UniProt (TrEMBL) Secondary ID(s) of Target Chain>


> <UniProt (TrEMBL) Alternative ID(s) of Target Chain>


$$$$

  SciTegic09261414532D

 32 35  0  0  0  0            999 V2000
    9.5141   -4.2540    0.0000 S   0  0
    9.0957   -4.9560    0.0000 O   0  0
    9.9128   -4.9674    0.0000 O   0  0
    4.6404   -3.7483    0.0000 O   0  0
    3.9398   -4.1320    0.0000 C   0  0  1  0  0  0
    3.2542   -3.7153    0.0000 C   0  0
    3.2780   -2.9146    0.0000 C   0  0
    2.5933   -2.4979    0.0000 C   0  0
    1.8917   -2.8817    0.0000 C   0  0
    1.8752   -3.6864    0.0000 C   0  0
    2.5606   -4.0994    0.0000 C   0  0
    3.9839   -2.5331    0.0000 C   0  0
    1.1719   -4.0726    0.0000 F   0  0
    5.3076   -4.1644    0.0000 C   0  0
    6.7149   -4.1988    0.0000 C   0  0
    5.3078   -4.9672    0.0000 C   0  0
    6.0325   -3.7814    0.0000 C   0  0
    6.6958   -5.0003    0.0000 C   0  0
    5.9943   -5.3846    0.0000 N   0  0
    4.6021   -5.3515    0.0000 N   0  0
    4.6798   -2.9615    0.0000 O   0  0
    4.0069   -1.7163    0.0000 N   0  0
    4.7258   -1.3277    0.0000 C   0  0
    3.3110   -1.2879    0.0000 C   0  0
    3.5247   -4.8371    0.0000 C   0  0
    7.4317   -3.0087    0.0000 C   0  0
    7.4181   -3.8145    0.0000 C   0  0
    8.1081   -4.2274    0.0000 C   0  0
    8.8122   -3.8356    0.0000 C   0  0
    8.8219   -3.0267    0.0000 C   0  0
    8.1313   -2.6174    0.0000 C   0  0
   10.2274   -3.8553    0.0000 C   0  0
  2  1  2  0
  1  3  2  0
 14  4  1  0
  4  5  1  0
  5  6  1  0
  6  7  2  0
  7  8  1  0
  8  9  2  0
  9 10  1  0
 10 11  2  0
 11  6  1  0
  7 12  1  0
 10 13  1  0
 16 14  1  0
 14 17  2  0
 17 15  1  0
 15 18  2  0
 18 19  1  0
 16 19  2  0
 16 20  1  0
 15 27  1  0
 12 21  2  0
 12 22  1  0
 22 23  1  0
 22 24  1  0
 23 26  1  0
  5 25  1  6
 26 27  2  0
 27 28  1  0
 28 29  2  0
 29 30  1  0
 30 31  2  0
 31 26  1  0
 29  1  1  0
  1 32  1  0
M  END
> <From>
www.bindingDB.org

> <BindingDB Reactant_set_id>
50103667

> <Ligand InChI>
InChI=1S/C23H22FN3O4S/c1-13-19-9-16(24)5-7-18(19)23(28)27(2)12-14-4-6-17(32(3,29)30)10-20(14)15-8-21(31-13)22(25)26-11-15/h4-11,13H,12H2,1-3H3,(H2,25,26)/t13-/m1/s1

> <Ligand InChI Key>
OMIYERABHRFNAV-CYBMUJFWSA-N

> <BindingDB MonomerID>
50018837

> <BindingDB Ligand Name>
CHEMBL3286827

> <Target Name>
ALK tyrosine kinase receptor

> <Target Source Organism According to Curator or DataSource>
Homo sapiens

> <Ki (nM)>
 0.400000

> <IC50 (nM)>


> <Kd (nM)>


> <EC50 (nM)>


> <kon (M-1-s-1)>


> <koff (s-1)>


> <pH>


> <Temp C>


> <Curation/DataSource>
ChEMBL

> <Article DOI>
10.1021/jm500261q

> <BindingDB Entry DOI>
10.7270/Q2K35W68

> <PMID>
24819116

> <PubChem AID>


> <Patent Number>


> <Authors>
Johnson, TW; Richardson, PF; Bailey, S; Brooun, A; Burke, BJ; Collins, MR; Cui, JJ; Deal, JG; Deng, YL; Dinh, D; Engstrom, LD; He, M; Hoffman, J; Hoffman, RL; Huang, Q; Kania, RS; Kath, JC; Lam, H; Lam, JL; Le, PT; Lingardo, L; Liu, W; McTigue, M; Palmer, CL; Sach, NW; Smeal, T; Smith, GL; Stewart, AE; Timofeevski, S; Zhu, H; Zhu, J; Zou, HY; Edwards, MP

> <Date of publication>
6/12/2014

> <Date in BindingDB>
2/11/2015

> <Institution>
Pfizer Inc

> <Link to Ligand in BindingDB>
http://www.bindingdb.org/bind/chemsearch/marvin/MolStructure.jsp?monomerid=50018837

> <Link to Ligand-Target Pair in BindingDB>
http://www.bindingdb.org/jsp/dbsearch/PrimarySearch_ki.jsp?energyterm=kJ/mole&tag=pol&polymerid=5809&target=ALK+tyrosine+kinase+receptor&column=ki&startPg=0&Increment=50&submit=Search

> <Link to Ligand-Target Pair in BindingDB>
http://www.bindingdb.org/jsp/dbsearch/PrimarySearch_ki.jsp?energyterm=kJ/mole&tag=r21&monomerid=50018837&enzyme=ALK+tyrosine+kinase+receptor&column=ki&startPg=0&Increment=50&submit=Search

> <Ligand HET ID in PDB>


> <PDB ID(s) for Ligand-Target Complex>


> <PubChem CID of Ligand>
89808124

> <PubChem SID of Ligand>
103929890

> <ChEBI ID of Ligand>


> <ChEMBL ID of Ligand>
CHEMBL3286827

> <DrugBank ID of Ligand>


> <IUPHAR_GRAC ID of Ligand>


> <KEGG ID of Ligand>


> <ZINC ID of Ligand>
ZINC33891497

> <Number of Protein Chains in Target (bigger than 1 implies a multichain complex)>
1

> <BindingDB Target Chain Sequence>
MGAIGLLWLLPLLLSTAAVGSGMGTGQRAGSPAAGPPLQPREPLSYSRLQRKSLAVDFVVPSLFRVYARDLLLPPSSSELKAGRPEARGSLALDCAPLLRLLGPAPGVSWTAGSPAPAEARTLSRVLKGGSVRKLRRAKQLVLELGEEAILEGCVGPPGEAAVGLLQFNLSELFSWWIRQGEGRLRIRLMPEKKASEVGREGRLSAAIRASQPRLLFQIFGTGHSSLESPTNMPSPSPDYFTWNLTWIMKDSFPFLSHRSRYGLECSFDFPCELEYSPPLHDLRNQSWSWRRIPSEEASQMDLLDGPGAERSKEMPRGSFLLLNTSADSKHTILSPWMRSSSEHCTLAVSVHRHLQPSGRYIAQLLPHNEAAREILLMPTPGKHGWTVLQGRIGRPDNPFRVALEYISSGNRSLSAVDFFALKNCSEGTSPGSKMALQSSFTCWNGTVLQLGQACDFHQDCAQGEDESQMCRKLPVGFYCNFEDGFCGWTQGTLSPHTPQWQVRTLKDARFQDHQDHALLLSTTDVPASESATVTSATFPAPIKSSPCELRMSWLIRGVLRGNVSLVLVENKTGKEQGRMVWHVAAYEGLSLWQWMVLPLLDVSDRFWLQMVAWWGQGSRAIVAFDNISISLDCYLTISGEDKILQNTAPKSRNLFERNPNKELKPGENSPRQTPIFDPTVHWLFTTCGASGPHGPTQAQCNNAYQNSNLSVEVGSEGPLKGIQIWKVPATDTYSISGYGAAGGKGGKNTMMRSHGVSVLGIFNLEKDDMLYILVGQQGEDACPSTNQLIQKVCIGENNVIEEEIRVNRSVHEWAGGGGGGGGATYVFKMKDGVPVPLIIAAGGGGRAYGAKTDTFHPERLENNSSVLGLNGNSGAAGGGGGWNDNTSLLWAGKSLQEGATGGHSCPQAMKKWGWETRGGFGGGGGGCSSGGGGGGYIGGNAASNNDPEMDGEDGVSFISPLGILYTPALKVMEGHGEVNIKHYLNCSHCEVDECHMDPESHKVICFCDHGTVLAEDGVSCIVSPTPEPHLPLSLILSVVTSALVAALVLAFSGIMIVYRRKHQELQAMQMELQSPEYKLSKLRTSTIMTDYNPNYCFAGKTSSISDLKEVPRKNITLIRGLGHGAFGEVYEGQVSGMPNDPSPLQVAVKTLPEVCSEQDELDFLMEALIISKFNHQNIVRCIGVSLQSLPRFILLELMAGGDLKSFLRETRPRPSQPSSLAMLDLLHVARDIACGCQYLEENHFIHRDIAARNCLLTCPGPGRVAKIGDFGMARDIYRASYYRKGGCAMLPVKWMPPEAFMEGIFTSKTDTWSFGVLLWEIFSLGYMPYPSKSNQEVLEFVTSGGRMDPPKNCPGPVYRIMTQCWQHQPEDRPNFAIILERIEYCTQDPDVINTALPIEYGPLVEEEEKVPVRPKDPEGVPPLLVSQQAKREEERSPAAPPPLPTTSSGKAAKKPTAAEISVRVPRGPAVEGGHVNMAFSQSNPPSELHKVHGSRNKPTSLWNPTYGSWFTEKPTKKNNPIAKKEPHDRGNLGLEGSCTVPPNVATGRLPGASLLLEPSSLTANMKEVPLFRLRHFPCGNVNYGYQQQGLPLEAATAPGAGHYEDTILKSKNSMNQPGP

> <PDB ID(s) of Target Chain>
2XB7,2XBA,3AOX,5FTO,5FTQ,6E0R,6EBW,6EDL,6MX8,7JY4,7JYR,7JYS,7JYT,7LS0,7MZW,7MZY,7N00,7NX3,7NX4,8ARJ

> <UniProt (SwissProt) Recommended Name of Target Chain>
ALK tyrosine kinase receptor

> <UniProt (SwissProt) Entry Name of Target Chain>
ALK_HUMAN

> <UniProt (SwissProt) Primary ID of Target Chain>
Q9UM73

> <UniProt (SwissProt) Secondary ID(s) of Target Chain>
A6P4T4 A6P4V4 Q4ZFX9 Q53QQ6 Q53RZ4 Q59FI3 Q9Y4K6

> <UniProt (SwissProt) Alternative ID(s) of Target Chain>


> <UniProt (TrEMBL) Submitted Name of Target Chain>


> <UniProt (TrEMBL) Entry Name of Target Chain>


> <UniProt (TrEMBL) Primary ID of Target Chain>


> <UniProt (TrEMBL) Secondary ID(s) of Target Chain>


> <UniProt (TrEMBL) Alternative ID(s) of Target Chain>


$$$$

  SciTegic09261414532D

 29 32  0  0  0  0            999 V2000
    4.9153   -4.1332    0.0000 O   0  0
    4.1943   -4.5280    0.0000 C   0  0  1  0  0  0
    3.4888   -4.0991    0.0000 C   0  0
    3.5133   -3.2753    0.0000 C   0  0
    2.8087   -2.8465    0.0000 C   0  0
    2.0868   -3.2413    0.0000 C   0  0
    2.0698   -4.0695    0.0000 C   0  0
    2.7751   -4.4945    0.0000 C   0  0
    4.2397   -2.8827    0.0000 C   0  0
    1.3461   -4.4669    0.0000 F   0  0
    7.7890   -3.3721    0.0000 C   0  0
    5.6018   -4.5613    0.0000 C   0  0
    7.0500   -4.5968    0.0000 C   0  0
    5.6020   -5.3875    0.0000 C   0  0
    6.3478   -4.1673    0.0000 C   0  0
    7.0303   -5.4215    0.0000 C   0  0
    6.3085   -5.8169    0.0000 N   0  0
    4.8758   -5.7828    0.0000 N   0  0
    7.7736   -4.2013    0.0000 C   0  0
    8.5501   -4.4702    0.0000 C   0  0
    9.0507   -3.8141    0.0000 N   0  0
    8.5802   -3.1403    0.0000 N   0  0
    8.7884   -5.2575    0.0000 C   0  0
    3.7756   -5.2408    0.0000 C   0  0
    4.9558   -3.3235    0.0000 O   0  0
    4.2634   -2.0421    0.0000 N   0  0
    5.0031   -1.6423    0.0000 C   0  0
    3.5473   -1.6014    0.0000 C   0  0
    8.8592   -2.3470    0.0000 C   0  0
 12  1  1  0
  1  2  1  0
  2  3  1  0
  3  4  2  0
  4  5  1  0
  5  6  2  0
  6  7  1  0
  7  8  2  0
  8  3  1  0
  4  9  1  0
  7 10  1  0
 14 12  1  0
 12 15  2  0
 15 13  1  0
 13 16  2  0
 16 17  1  0
 14 17  2  0
 14 18  1  0
 13 19  1  0
 11 19  2  0
 19 20  1  0
 20 21  2  0
 21 22  1  0
 22 11  1  0
 20 23  1  0
  2 24  1  6
  9 25  2  0
  9 26  1  0
 26 27  1  0
 26 28  1  0
 27 11  1  0
 22 29  1  0
M  END
> <From>
www.bindingDB.org

> <BindingDB Reactant_set_id>
50103509

> <Ligand InChI>
InChI=1S/C21H22FN5O2/c1-11-19-13-7-18(20(23)24-9-13)29-12(2)16-8-14(22)5-6-15(16)21(28)26(3)10-17(19)27(4)25-11/h5-9,12H,10H2,1-4H3,(H2,23,24)/t12-/m1/s1

> <Ligand InChI Key>
ASQDMAQHZGURLM-GFCCVEGCSA-N

> <BindingDB MonomerID>
50018815

> <BindingDB Ligand Name>
CHEMBL3286820

> <Target Name>
BDNF/NT-3 growth factors receptor

> <Target Source Organism According to Curator or DataSource>
Human

> <Ki (nM)>
 0.500000

> <IC50 (nM)>


> <Kd (nM)>


> <EC50 (nM)>


> <kon (M-1-s-1)>


> <koff (s-1)>


> <pH>


> <Temp C>


> <Curation/DataSource>
ChEMBL

> <Article DOI>
10.1021/jm500261q

> <BindingDB Entry DOI>
10.7270/Q2K35W68

> <PMID>
24819116

> <PubChem AID>


> <Patent Number>


> <Authors>
Johnson, TW; Richardson, PF; Bailey, S; Brooun, A; Burke, BJ; Collins, MR; Cui, JJ; Deal, JG; Deng, YL; Dinh, D; Engstrom, LD; He, M; Hoffman, J; Hoffman, RL; Huang, Q; Kania, RS; Kath, JC; Lam, H; Lam, JL; Le, PT; Lingardo, L; Liu, W; McTigue, M; Palmer, CL; Sach, NW; Smeal, T; Smith, GL; Stewart, AE; Timofeevski, S; Zhu, H; Zhu, J; Zou, HY; Edwards, MP

> <Date of publication>
6/12/2014

> <Date in BindingDB>
2/11/2015

> <Institution>
Pfizer Inc

> <Link to Ligand in BindingDB>
http://www.bindingdb.org/bind/chemsearch/marvin/MolStructure.jsp?monomerid=50018815

> <Link to Ligand-Target Pair in BindingDB>
http://www.bindingdb.org/jsp/dbsearch/PrimarySearch_ki.jsp?energyterm=kJ/mole&tag=pol&polymerid=6476&target=BDNF%2FNT-3+growth+factors+receptor&column=ki&startPg=0&Increment=50&submit=Search

> <Link to Ligand-Target Pair in BindingDB>
http://www.bindingdb.org/jsp/dbsearch/PrimarySearch_ki.jsp?energyterm=kJ/mole&tag=r21&monomerid=50018815&enzyme=BDNF%2FNT-3+growth+factors+receptor&column=ki&startPg=0&Increment=50&submit=Search

> <Ligand HET ID in PDB>
IV7

> <PDB ID(s) for Ligand-Target Complex>
4CMU

> <PubChem CID of Ligand>
90644193

> <PubChem SID of Ligand>
103929868

> <ChEBI ID of Ligand>


> <ChEMBL ID of Ligand>
CHEMBL3286820

> <DrugBank ID of Ligand>


> <IUPHAR_GRAC ID of Ligand>


> <KEGG ID of Ligand>


> <ZINC ID of Ligand>
ZINC33891509

> <Number of Protein Chains in Target (bigger than 1 implies a multichain complex)>
1

> <BindingDB Target Chain Sequence>
MSSWIRWHGPAMARLWGFCWLVVGFWRAAFACPTSCKCSASRIWCSDPSPGIVAFPRLEPNSVDPENITEIFIANQKRLEIINEDDVEAYVGLRNLTIVDSGLKFVAHKAFLKNSNLQHINFTRNKLTSLSRKHFRHLDLSELILVGNPFTCSCDIMWIKTLQEAKSSPDTQDLYCLNESSKNIPLANLQIPNCGLPSANLAAPNLTVEEGKSITLSCSVAGDPVPNMYWDVGNLVSKHMNETSHTQGSLRITNISSDDSGKQISCVAENLVGEDQDSVNLTVHFAPTITFLESPTSDHHWCIPFTVKGNPKPALQWFYNGAILNESKYICTKIHVTNHTEYHGCLQLDNPTHMNNGDYTLIAKNEYGKDEKQISAHFMGWPGIDDGANPNYPDVIYEDYGTAANDIGDTTNRSNEIPSTDVTDKTGREHLSVYAVVVIASVVGFCLLVMLFLLKLARHSKFGMKGPASVISNDDDSASPLHHISNGSNTPSSSEGGPDAVIIGMTKIPVIENPQYFGITNSQLKPDTFVQHIKRHNIVLKRELGEGAFGKVFLAECYNLCPEQDKILVAVKTLKDASDNARKDFHREAELLTNLQHEHIVKFYGVCVEGDPLIMVFEYMKHGDLNKFLRAHGPDAVLMAEGNPPTELTQSQMLHIAQQIAAGMVYLASQHFVHRDLATRNCLVGENLLVKIGDFGMSRDVYSTDYYRVGGHTMLPIRWMPPESIMYRKFTTESDVWSLGVVLWEIFTYGKQPWYQLSNNEVIECITQGRVLQRPRTCPQEVYELMLGCWQREPHMRKNIKGIHTLLQNLAKASPVYLDILG

> <PDB ID(s) of Target Chain>
1WWB,4ASZ,4AT3,4AT4,4AT5,5MO9

> <UniProt (SwissProt) Recommended Name of Target Chain>
BDNF/NT-3 growth factors receptor

> <UniProt (SwissProt) Entry Name of Target Chain>
NTRK2_HUMAN

> <UniProt (SwissProt) Primary ID of Target Chain>
Q16620

> <UniProt (SwissProt) Secondary ID(s) of Target Chain>
B1ANZ4 B4DFV9 Q16675 Q59GJ1 Q8WXJ5 Q8WXJ6 Q8WXJ7

> <UniProt (SwissProt) Alternative ID(s) of Target Chain>


> <UniProt (TrEMBL) Submitted Name of Target Chain>


> <UniProt (TrEMBL) Entry Name of Target Chain>


> <UniProt (TrEMBL) Primary ID of Target Chain>


> <UniProt (TrEMBL) Secondary ID(s) of Target Chain>


> <UniProt (TrEMBL) Alternative ID(s) of Target Chain>


$$$$

  SciTegic09261414532D

 33 37  0  0  0  0            999 V2000
   14.8965   -4.5449    0.0000 O   0  0
   14.1960   -4.9286    0.0000 C   0  0  1  0  0  0
   13.5104   -4.5118    0.0000 C   0  0
   13.5342   -3.7112    0.0000 C   0  0
   12.8494   -3.2945    0.0000 C   0  0
   12.1479   -3.6782    0.0000 C   0  0
   12.1313   -4.4830    0.0000 C   0  0
   12.8167   -4.8960    0.0000 C   0  0
   14.2401   -3.3297    0.0000 C   0  0
   11.4280   -4.8692    0.0000 F   0  0
   17.6893   -3.8053    0.0000 C   0  0
   15.5638   -4.9609    0.0000 C   0  0
   16.9711   -4.9953    0.0000 C   0  0
   15.5639   -5.7638    0.0000 C   0  0
   16.2887   -4.5780    0.0000 N   0  0
   16.9520   -5.7969    0.0000 C   0  0
   16.2505   -6.1811    0.0000 N   0  0
   14.8583   -6.1480    0.0000 N   0  0
   17.6743   -4.6111    0.0000 C   0  0
   18.4582   -3.5800    0.0000 N   0  0
   13.7891   -5.6213    0.0000 C   0  0
   14.9360   -3.7580    0.0000 O   0  0
   14.2631   -2.5128    0.0000 N   0  0
   14.9820   -2.1243    0.0000 C   0  0
   13.5671   -2.0845    0.0000 C   0  0
   18.9153   -4.2348    0.0000 C   0  0
   18.4287   -4.8673    0.0000 N   0  0
   18.7334   -5.6029    0.0000 C   0  0
   19.5243   -5.7072    0.0000 C   0  0
   20.0097   -5.0699    0.0000 C   0  0
   19.7024   -4.3368    0.0000 C   0  0
   19.8383   -6.4616    0.0000 C   0  0
   20.1537   -7.2121    0.0000 N   0  0
 12  1  1  0
  1  2  1  0
  2  3  1  0
  3  4  2  0
  4  5  1  0
  5  6  2  0
  6  7  1  0
  7  8  2  0
  8  3  1  0
  4  9  1  0
  7 10  1  0
 14 12  1  0
 12 15  2  0
 15 13  1  0
 13 16  2  0
 16 17  1  0
 14 17  2  0
 14 18  1  0
 13 19  1  0
 11 19  2  0
 19 27  1  0
 26 20  2  0
 20 11  1  0
  2 21  1  6
  9 22  2  0
  9 23  1  0
 23 24  1  0
 23 25  1  0
 24 11  1  0
 26 27  1  0
 27 28  1  0
 28 29  2  0
 29 30  1  0
 30 31  2  0
 31 26  1  0
 29 32  1  0
 32 33  3  0
M  END
> <From>
www.bindingDB.org

> <BindingDB Reactant_set_id>
50103677

> <Ligand InChI>
InChI=1S/C23H18FN7O2/c1-12-16-7-14(24)4-5-15(16)23(32)30(2)11-18-20(17-9-27-21(26)22(29-17)33-12)31-10-13(8-25)3-6-19(31)28-18/h3-7,9-10,12H,11H2,1-2H3,(H2,26,27)/t12-/m1/s1

> <Ligand InChI Key>
MOENETCLMCOREY-GFCCVEGCSA-N

> <BindingDB MonomerID>
50018842

> <BindingDB Ligand Name>
CHEMBL3286832

> <Target Name>
ALK tyrosine kinase receptor

> <Target Source Organism According to Curator or DataSource>
Homo sapiens

> <Ki (nM)>
 0.560000

> <IC50 (nM)>


> <Kd (nM)>


> <EC50 (nM)>


> <kon (M-1-s-1)>


> <koff (s-1)>


> <pH>


> <Temp C>


> <Curation/DataSource>
ChEMBL

> <Article DOI>
10.1021/jm500261q

> <BindingDB Entry DOI>
10.7270/Q2K35W68

> <PMID>
24819116

> <PubChem AID>


> <Patent Number>


> <Authors>
Johnson, TW; Richardson, PF; Bailey, S; Brooun, A; Burke, BJ; Collins, MR; Cui, JJ; Deal, JG; Deng, YL; Dinh, D; Engstrom, LD; He, M; Hoffman, J; Hoffman, RL; Huang, Q; Kania, RS; Kath, JC; Lam, H; Lam, JL; Le, PT; Lingardo, L; Liu, W; McTigue, M; Palmer, CL; Sach, NW; Smeal, T; Smith, GL; Stewart, AE; Timofeevski, S; Zhu, H; Zhu, J; Zou, HY; Edwards, MP

> <Date of publication>
6/12/2014

> <Date in BindingDB>
2/11/2015

> <Institution>
Pfizer Inc

> <Link to Ligand in BindingDB>
http://www.bindingdb.org/bind/chemsearch/marvin/MolStructure.jsp?monomerid=50018842

> <Link to Ligand-Target Pair in BindingDB>
http://www.bindingdb.org/jsp/dbsearch/PrimarySearch_ki.jsp?energyterm=kJ/mole&tag=pol&polymerid=5809&target=ALK+tyrosine+kinase+receptor&column=ki&startPg=0&Increment=50&submit=Search

> <Link to Ligand-Target Pair in BindingDB>
http://www.bindingdb.org/jsp/dbsearch/PrimarySearch_ki.jsp?energyterm=kJ/mole&tag=r21&monomerid=50018842&enzyme=ALK+tyrosine+kinase+receptor&column=ki&startPg=0&Increment=50&submit=Search

> <Ligand HET ID in PDB>
KVC

> <PDB ID(s) for Ligand-Target Complex>
4CTB

> <PubChem CID of Ligand>
89816720

> <PubChem SID of Ligand>
103929895

> <ChEBI ID of Ligand>


> <ChEMBL ID of Ligand>
CHEMBL3286832

> <DrugBank ID of Ligand>


> <IUPHAR_GRAC ID of Ligand>


> <KEGG ID of Ligand>


> <ZINC ID of Ligand>
ZINC33891518

> <Number of Protein Chains in Target (bigger than 1 implies a multichain complex)>
1

> <BindingDB Target Chain Sequence>
MGAIGLLWLLPLLLSTAAVGSGMGTGQRAGSPAAGPPLQPREPLSYSRLQRKSLAVDFVVPSLFRVYARDLLLPPSSSELKAGRPEARGSLALDCAPLLRLLGPAPGVSWTAGSPAPAEARTLSRVLKGGSVRKLRRAKQLVLELGEEAILEGCVGPPGEAAVGLLQFNLSELFSWWIRQGEGRLRIRLMPEKKASEVGREGRLSAAIRASQPRLLFQIFGTGHSSLESPTNMPSPSPDYFTWNLTWIMKDSFPFLSHRSRYGLECSFDFPCELEYSPPLHDLRNQSWSWRRIPSEEASQMDLLDGPGAERSKEMPRGSFLLLNTSADSKHTILSPWMRSSSEHCTLAVSVHRHLQPSGRYIAQLLPHNEAAREILLMPTPGKHGWTVLQGRIGRPDNPFRVALEYISSGNRSLSAVDFFALKNCSEGTSPGSKMALQSSFTCWNGTVLQLGQACDFHQDCAQGEDESQMCRKLPVGFYCNFEDGFCGWTQGTLSPHTPQWQVRTLKDARFQDHQDHALLLSTTDVPASESATVTSATFPAPIKSSPCELRMSWLIRGVLRGNVSLVLVENKTGKEQGRMVWHVAAYEGLSLWQWMVLPLLDVSDRFWLQMVAWWGQGSRAIVAFDNISISLDCYLTISGEDKILQNTAPKSRNLFERNPNKELKPGENSPRQTPIFDPTVHWLFTTCGASGPHGPTQAQCNNAYQNSNLSVEVGSEGPLKGIQIWKVPATDTYSISGYGAAGGKGGKNTMMRSHGVSVLGIFNLEKDDMLYILVGQQGEDACPSTNQLIQKVCIGENNVIEEEIRVNRSVHEWAGGGGGGGGATYVFKMKDGVPVPLIIAAGGGGRAYGAKTDTFHPERLENNSSVLGLNGNSGAAGGGGGWNDNTSLLWAGKSLQEGATGGHSCPQAMKKWGWETRGGFGGGGGGCSSGGGGGGYIGGNAASNNDPEMDGEDGVSFISPLGILYTPALKVMEGHGEVNIKHYLNCSHCEVDECHMDPESHKVICFCDHGTVLAEDGVSCIVSPTPEPHLPLSLILSVVTSALVAALVLAFSGIMIVYRRKHQELQAMQMELQSPEYKLSKLRTSTIMTDYNPNYCFAGKTSSISDLKEVPRKNITLIRGLGHGAFGEVYEGQVSGMPNDPSPLQVAVKTLPEVCSEQDELDFLMEALIISKFNHQNIVRCIGVSLQSLPRFILLELMAGGDLKSFLRETRPRPSQPSSLAMLDLLHVARDIACGCQYLEENHFIHRDIAARNCLLTCPGPGRVAKIGDFGMARDIYRASYYRKGGCAMLPVKWMPPEAFMEGIFTSKTDTWSFGVLLWEIFSLGYMPYPSKSNQEVLEFVTSGGRMDPPKNCPGPVYRIMTQCWQHQPEDRPNFAIILERIEYCTQDPDVINTALPIEYGPLVEEEEKVPVRPKDPEGVPPLLVSQQAKREEERSPAAPPPLPTTSSGKAAKKPTAAEISVRVPRGPAVEGGHVNMAFSQSNPPSELHKVHGSRNKPTSLWNPTYGSWFTEKPTKKNNPIAKKEPHDRGNLGLEGSCTVPPNVATGRLPGASLLLEPSSLTANMKEVPLFRLRHFPCGNVNYGYQQQGLPLEAATAPGAGHYEDTILKSKNSMNQPGP

> <PDB ID(s) of Target Chain>
2XB7,2XBA,3AOX,5FTO,5FTQ,6E0R,6EBW,6EDL,6MX8,7JY4,7JYR,7JYS,7JYT,7LS0,7MZW,7MZY,7N00,7NX3,7NX4,8ARJ

> <UniProt (SwissProt) Recommended Name of Target Chain>
ALK tyrosine kinase receptor

> <UniProt (SwissProt) Entry Name of Target Chain>
ALK_HUMAN

> <UniProt (SwissProt) Primary ID of Target Chain>
Q9UM73

> <UniProt (SwissProt) Secondary ID(s) of Target Chain>
A6P4T4 A6P4V4 Q4ZFX9 Q53QQ6 Q53RZ4 Q59FI3 Q9Y4K6

> <UniProt (SwissProt) Alternative ID(s) of Target Chain>


> <UniProt (TrEMBL) Submitted Name of Target Chain>


> <UniProt (TrEMBL) Entry Name of Target Chain>


> <UniProt (TrEMBL) Primary ID of Target Chain>


> <UniProt (TrEMBL) Secondary ID(s) of Target Chain>


> <UniProt (TrEMBL) Alternative ID(s) of Target Chain>


$$$$

  SciTegic09261414532D

 28 31  0  0  0  0            999 V2000
    7.8967   -4.3757    0.0000 O   0  0
    7.1797   -4.7676    0.0000 C   0  0  1  0  0  0
    6.4817   -4.3426    0.0000 C   0  0
    6.5055   -3.5254    0.0000 C   0  0
    5.8084   -3.1005    0.0000 C   0  0
    5.0903   -3.4925    0.0000 C   0  0
    5.0738   -4.3138    0.0000 C   0  0
    5.7716   -4.7350    0.0000 C   0  0
    7.2238   -3.1357    0.0000 O   0  0
    7.9204   -3.5629    0.0000 C   0  0
    8.6387   -3.1731    0.0000 C   0  0
    4.3581   -4.7082    0.0000 F   0  0
   10.7432   -3.6237    0.0000 C   0  0
    8.5764   -4.8000    0.0000 C   0  0
   10.0126   -4.8344    0.0000 C   0  0
    8.5765   -5.6193    0.0000 C   0  0
    9.3137   -4.4088    0.0000 C   0  0
    9.9935   -5.6525    0.0000 C   0  0
    9.2754   -6.0449    0.0000 N   0  0
    7.8585   -6.0118    0.0000 N   0  0
   10.7282   -4.4419    0.0000 C   0  0
   11.4992   -4.7115    0.0000 C   0  0
   11.9940   -4.0614    0.0000 N   0  0
   11.5286   -3.3902    0.0000 N   0  0
   11.7350   -5.4931    0.0000 C   0  0
   11.9702   -6.2757    0.0000 N   0  0
   12.8110   -4.0795    0.0000 C   0  0
    6.7645   -5.4727    0.0000 C   0  0
 14  1  1  0
  1  2  1  0
  2  3  1  0
  3  4  2  0
  4  5  1  0
  5  6  2  0
  6  7  1  0
  7  8  2  0
  8  3  1  0
  4  9  1  0
  9 10  1  0
 10 11  1  0
  7 12  1  0
 16 14  1  0
 14 17  2  0
 17 15  1  0
 15 18  2  0
 18 19  1  0
 16 19  2  0
 16 20  1  0
 15 21  1  0
 13 21  1  0
 21 22  2  0
 22 23  1  0
 23 24  1  0
 24 13  2  0
 25 26  3  0
 22 25  1  0
 13 11  1  0
 23 27  1  0
  2 28  1  6
M  END
> <From>
www.bindingDB.org

> <BindingDB Reactant_set_id>
50103649

> <Ligand InChI>
InChI=1S/C20H18FN5O2/c1-11-14-8-13(21)3-4-17(14)27-6-5-15-19(16(9-22)26(2)25-15)12-7-18(28-11)20(23)24-10-12/h3-4,7-8,10-11H,5-6H2,1-2H3,(H2,23,24)/t11-/m1/s1

> <Ligand InChI Key>
IEZBZICPLSCIAC-LLVKDONJSA-N

> <BindingDB MonomerID>
50018828

> <BindingDB Ligand Name>
CHEMBL3286818

> <Target Name>
ALK tyrosine kinase receptor

> <Target Source Organism According to Curator or DataSource>
Homo sapiens

> <Ki (nM)>
 0.570000

> <IC50 (nM)>


> <Kd (nM)>


> <EC50 (nM)>


> <kon (M-1-s-1)>


> <koff (s-1)>


> <pH>


> <Temp C>


> <Curation/DataSource>
ChEMBL

> <Article DOI>
10.1021/jm500261q

> <BindingDB Entry DOI>
10.7270/Q2K35W68

> <PMID>
24819116

> <PubChem AID>


> <Patent Number>


> <Authors>
Johnson, TW; Richardson, PF; Bailey, S; Brooun, A; Burke, BJ; Collins, MR; Cui, JJ; Deal, JG; Deng, YL; Dinh, D; Engstrom, LD; He, M; Hoffman, J; Hoffman, RL; Huang, Q; Kania, RS; Kath, JC; Lam, H; Lam, JL; Le, PT; Lingardo, L; Liu, W; McTigue, M; Palmer, CL; Sach, NW; Smeal, T; Smith, GL; Stewart, AE; Timofeevski, S; Zhu, H; Zhu, J; Zou, HY; Edwards, MP

> <Date of publication>
6/12/2014

> <Date in BindingDB>
2/11/2015

> <Institution>
Pfizer Inc

> <Link to Ligand in BindingDB>
http://www.bindingdb.org/bind/chemsearch/marvin/MolStructure.jsp?monomerid=50018828

> <Link to Ligand-Target Pair in BindingDB>
http://www.bindingdb.org/jsp/dbsearch/PrimarySearch_ki.jsp?energyterm=kJ/mole&tag=pol&polymerid=5809&target=ALK+tyrosine+kinase+receptor&column=ki&startPg=0&Increment=50&submit=Search

> <Link to Ligand-Target Pair in BindingDB>
http://www.bindingdb.org/jsp/dbsearch/PrimarySearch_ki.jsp?energyterm=kJ/mole&tag=r21&monomerid=50018828&enzyme=ALK+tyrosine+kinase+receptor&column=ki&startPg=0&Increment=50&submit=Search

> <Ligand HET ID in PDB>


> <PDB ID(s) for Ligand-Target Complex>


> <PubChem CID of Ligand>
90644196

> <PubChem SID of Ligand>
103929881

> <ChEBI ID of Ligand>


> <ChEMBL ID of Ligand>
CHEMBL3286818

> <DrugBank ID of Ligand>


> <IUPHAR_GRAC ID of Ligand>


> <KEGG ID of Ligand>


> <ZINC ID of Ligand>
ZINC33891514

> <Number of Protein Chains in Target (bigger than 1 implies a multichain complex)>
1

> <BindingDB Target Chain Sequence>
MGAIGLLWLLPLLLSTAAVGSGMGTGQRAGSPAAGPPLQPREPLSYSRLQRKSLAVDFVVPSLFRVYARDLLLPPSSSELKAGRPEARGSLALDCAPLLRLLGPAPGVSWTAGSPAPAEARTLSRVLKGGSVRKLRRAKQLVLELGEEAILEGCVGPPGEAAVGLLQFNLSELFSWWIRQGEGRLRIRLMPEKKASEVGREGRLSAAIRASQPRLLFQIFGTGHSSLESPTNMPSPSPDYFTWNLTWIMKDSFPFLSHRSRYGLECSFDFPCELEYSPPLHDLRNQSWSWRRIPSEEASQMDLLDGPGAERSKEMPRGSFLLLNTSADSKHTILSPWMRSSSEHCTLAVSVHRHLQPSGRYIAQLLPHNEAAREILLMPTPGKHGWTVLQGRIGRPDNPFRVALEYISSGNRSLSAVDFFALKNCSEGTSPGSKMALQSSFTCWNGTVLQLGQACDFHQDCAQGEDESQMCRKLPVGFYCNFEDGFCGWTQGTLSPHTPQWQVRTLKDARFQDHQDHALLLSTTDVPASESATVTSATFPAPIKSSPCELRMSWLIRGVLRGNVSLVLVENKTGKEQGRMVWHVAAYEGLSLWQWMVLPLLDVSDRFWLQMVAWWGQGSRAIVAFDNISISLDCYLTISGEDKILQNTAPKSRNLFERNPNKELKPGENSPRQTPIFDPTVHWLFTTCGASGPHGPTQAQCNNAYQNSNLSVEVGSEGPLKGIQIWKVPATDTYSISGYGAAGGKGGKNTMMRSHGVSVLGIFNLEKDDMLYILVGQQGEDACPSTNQLIQKVCIGENNVIEEEIRVNRSVHEWAGGGGGGGGATYVFKMKDGVPVPLIIAAGGGGRAYGAKTDTFHPERLENNSSVLGLNGNSGAAGGGGGWNDNTSLLWAGKSLQEGATGGHSCPQAMKKWGWETRGGFGGGGGGCSSGGGGGGYIGGNAASNNDPEMDGEDGVSFISPLGILYTPALKVMEGHGEVNIKHYLNCSHCEVDECHMDPESHKVICFCDHGTVLAEDGVSCIVSPTPEPHLPLSLILSVVTSALVAALVLAFSGIMIVYRRKHQELQAMQMELQSPEYKLSKLRTSTIMTDYNPNYCFAGKTSSISDLKEVPRKNITLIRGLGHGAFGEVYEGQVSGMPNDPSPLQVAVKTLPEVCSEQDELDFLMEALIISKFNHQNIVRCIGVSLQSLPRFILLELMAGGDLKSFLRETRPRPSQPSSLAMLDLLHVARDIACGCQYLEENHFIHRDIAARNCLLTCPGPGRVAKIGDFGMARDIYRASYYRKGGCAMLPVKWMPPEAFMEGIFTSKTDTWSFGVLLWEIFSLGYMPYPSKSNQEVLEFVTSGGRMDPPKNCPGPVYRIMTQCWQHQPEDRPNFAIILERIEYCTQDPDVINTALPIEYGPLVEEEEKVPVRPKDPEGVPPLLVSQQAKREEERSPAAPPPLPTTSSGKAAKKPTAAEISVRVPRGPAVEGGHVNMAFSQSNPPSELHKVHGSRNKPTSLWNPTYGSWFTEKPTKKNNPIAKKEPHDRGNLGLEGSCTVPPNVATGRLPGASLLLEPSSLTANMKEVPLFRLRHFPCGNVNYGYQQQGLPLEAATAPGAGHYEDTILKSKNSMNQPGP

> <PDB ID(s) of Target Chain>
2XB7,2XBA,3AOX,5FTO,5FTQ,6E0R,6EBW,6EDL,6MX8,7JY4,7JYR,7JYS,7JYT,7LS0,7MZW,7MZY,7N00,7NX3,7NX4,8ARJ

> <UniProt (SwissProt) Recommended Name of Target Chain>
ALK tyrosine kinase receptor

> <UniProt (SwissProt) Entry Name of Target Chain>
ALK_HUMAN

> <UniProt (SwissProt) Primary ID of Target Chain>
Q9UM73

> <UniProt (SwissProt) Secondary ID(s) of Target Chain>
A6P4T4 A6P4V4 Q4ZFX9 Q53QQ6 Q53RZ4 Q59FI3 Q9Y4K6

> <UniProt (SwissProt) Alternative ID(s) of Target Chain>


> <UniProt (TrEMBL) Submitted Name of Target Chain>


> <UniProt (TrEMBL) Entry Name of Target Chain>


> <UniProt (TrEMBL) Primary ID of Target Chain>


> <UniProt (TrEMBL) Secondary ID(s) of Target Chain>


> <UniProt (TrEMBL) Alternative ID(s) of Target Chain>


$$$$

  SciTegic09261414532D

 29 32  0  0  0  0            999 V2000
    7.9716   -4.4172    0.0000 O   0  0
    7.2478   -4.8128    0.0000 C   0  0  1  0  0  0
    6.5432   -4.3838    0.0000 C   0  0
    6.5672   -3.5588    0.0000 C   0  0
    5.8635   -3.1299    0.0000 C   0  0
    5.1386   -3.5256    0.0000 C   0  0
    5.1219   -4.3547    0.0000 C   0  0
    5.8263   -4.7799    0.0000 C   0  0
    7.2923   -3.1654    0.0000 O   0  0
    7.9955   -3.5967    0.0000 C   0  0
    8.7206   -3.2032    0.0000 C   0  0
    4.3994   -4.7528    0.0000 F   0  0
   10.8451   -3.6581    0.0000 C   0  0
    8.6577   -4.8455    0.0000 C   0  0
   10.1075   -4.8802    0.0000 C   0  0
    8.6578   -5.6726    0.0000 C   0  0
    9.4020   -4.4506    0.0000 C   0  0
   10.0883   -5.7061    0.0000 C   0  0
    9.3633   -6.1022    0.0000 N   0  0
    7.9330   -6.0688    0.0000 N   0  0
   10.8299   -4.4840    0.0000 C   0  0
   11.6082   -4.7562    0.0000 C   0  0
   12.1077   -4.0999    0.0000 N   0  0
   11.6379   -3.4223    0.0000 N   0  0
   11.8463   -5.5452    0.0000 C   0  0
   12.0837   -6.3352    0.0000 N   0  0
   12.9325   -4.1182    0.0000 C   0  0
    6.8286   -5.5246    0.0000 C   0  0
    9.4239   -3.6344    0.0000 C   0  0
 14  1  1  0
  1  2  1  0
  2  3  1  0
  3  4  2  0
  4  5  1  0
  5  6  2  0
  6  7  1  0
  7  8  2  0
  8  3  1  0
  4  9  1  0
  9 10  1  0
 10 11  1  0
  7 12  1  0
 16 14  1  0
 14 17  2  0
 17 15  1  0
 15 18  2  0
 18 19  1  0
 16 19  2  0
 16 20  1  0
 15 21  1  0
 13 21  1  0
 21 22  2  0
 22 23  1  0
 23 24  1  0
 24 13  2  0
 25 26  3  0
 22 25  1  0
 23 27  1  0
  2 28  1  6
 11 29  1  0
 29 13  1  0
M  END
> <From>
www.bindingDB.org

> <BindingDB Reactant_set_id>
50103650

> <Ligand InChI>
InChI=1S/C21H20FN5O2/c1-12-15-9-14(22)5-6-18(15)28-7-3-4-16-20(17(10-23)27(2)26-16)13-8-19(29-12)21(24)25-11-13/h5-6,8-9,11-12H,3-4,7H2,1-2H3,(H2,24,25)/t12-/m1/s1

> <Ligand InChI Key>
HSBYECUDEOYBCG-GFCCVEGCSA-N

> <BindingDB MonomerID>
50018829

> <BindingDB Ligand Name>
CHEMBL3286819

> <Target Name>
ALK tyrosine kinase receptor

> <Target Source Organism According to Curator or DataSource>
Homo sapiens

> <Ki (nM)>
 0.620000

> <IC50 (nM)>


> <Kd (nM)>


> <EC50 (nM)>


> <kon (M-1-s-1)>


> <koff (s-1)>


> <pH>


> <Temp C>


> <Curation/DataSource>
ChEMBL

> <Article DOI>
10.1021/jm500261q

> <BindingDB Entry DOI>
10.7270/Q2K35W68

> <PMID>
24819116

> <PubChem AID>


> <Patent Number>


> <Authors>
Johnson, TW; Richardson, PF; Bailey, S; Brooun, A; Burke, BJ; Collins, MR; Cui, JJ; Deal, JG; Deng, YL; Dinh, D; Engstrom, LD; He, M; Hoffman, J; Hoffman, RL; Huang, Q; Kania, RS; Kath, JC; Lam, H; Lam, JL; Le, PT; Lingardo, L; Liu, W; McTigue, M; Palmer, CL; Sach, NW; Smeal, T; Smith, GL; Stewart, AE; Timofeevski, S; Zhu, H; Zhu, J; Zou, HY; Edwards, MP

> <Date of publication>
6/12/2014

> <Date in BindingDB>
2/11/2015

> <Institution>
Pfizer Inc

> <Link to Ligand in BindingDB>
http://www.bindingdb.org/bind/chemsearch/marvin/MolStructure.jsp?monomerid=50018829

> <Link to Ligand-Target Pair in BindingDB>
http://www.bindingdb.org/jsp/dbsearch/PrimarySearch_ki.jsp?energyterm=kJ/mole&tag=pol&polymerid=5809&target=ALK+tyrosine+kinase+receptor&column=ki&startPg=0&Increment=50&submit=Search

> <Link to Ligand-Target Pair in BindingDB>
http://www.bindingdb.org/jsp/dbsearch/PrimarySearch_ki.jsp?energyterm=kJ/mole&tag=r21&monomerid=50018829&enzyme=ALK+tyrosine+kinase+receptor&column=ki&startPg=0&Increment=50&submit=Search

> <Ligand HET ID in PDB>


> <PDB ID(s) for Ligand-Target Complex>


> <PubChem CID of Ligand>
90644197

> <PubChem SID of Ligand>
103929882

> <ChEBI ID of Ligand>


> <ChEMBL ID of Ligand>
CHEMBL3286819

> <DrugBank ID of Ligand>


> <IUPHAR_GRAC ID of Ligand>


> <KEGG ID of Ligand>


> <ZINC ID of Ligand>
ZINC33891501

> <Number of Protein Chains in Target (bigger than 1 implies a multichain complex)>
1

> <BindingDB Target Chain Sequence>
MGAIGLLWLLPLLLSTAAVGSGMGTGQRAGSPAAGPPLQPREPLSYSRLQRKSLAVDFVVPSLFRVYARDLLLPPSSSELKAGRPEARGSLALDCAPLLRLLGPAPGVSWTAGSPAPAEARTLSRVLKGGSVRKLRRAKQLVLELGEEAILEGCVGPPGEAAVGLLQFNLSELFSWWIRQGEGRLRIRLMPEKKASEVGREGRLSAAIRASQPRLLFQIFGTGHSSLESPTNMPSPSPDYFTWNLTWIMKDSFPFLSHRSRYGLECSFDFPCELEYSPPLHDLRNQSWSWRRIPSEEASQMDLLDGPGAERSKEMPRGSFLLLNTSADSKHTILSPWMRSSSEHCTLAVSVHRHLQPSGRYIAQLLPHNEAAREILLMPTPGKHGWTVLQGRIGRPDNPFRVALEYISSGNRSLSAVDFFALKNCSEGTSPGSKMALQSSFTCWNGTVLQLGQACDFHQDCAQGEDESQMCRKLPVGFYCNFEDGFCGWTQGTLSPHTPQWQVRTLKDARFQDHQDHALLLSTTDVPASESATVTSATFPAPIKSSPCELRMSWLIRGVLRGNVSLVLVENKTGKEQGRMVWHVAAYEGLSLWQWMVLPLLDVSDRFWLQMVAWWGQGSRAIVAFDNISISLDCYLTISGEDKILQNTAPKSRNLFERNPNKELKPGENSPRQTPIFDPTVHWLFTTCGASGPHGPTQAQCNNAYQNSNLSVEVGSEGPLKGIQIWKVPATDTYSISGYGAAGGKGGKNTMMRSHGVSVLGIFNLEKDDMLYILVGQQGEDACPSTNQLIQKVCIGENNVIEEEIRVNRSVHEWAGGGGGGGGATYVFKMKDGVPVPLIIAAGGGGRAYGAKTDTFHPERLENNSSVLGLNGNSGAAGGGGGWNDNTSLLWAGKSLQEGATGGHSCPQAMKKWGWETRGGFGGGGGGCSSGGGGGGYIGGNAASNNDPEMDGEDGVSFISPLGILYTPALKVMEGHGEVNIKHYLNCSHCEVDECHMDPESHKVICFCDHGTVLAEDGVSCIVSPTPEPHLPLSLILSVVTSALVAALVLAFSGIMIVYRRKHQELQAMQMELQSPEYKLSKLRTSTIMTDYNPNYCFAGKTSSISDLKEVPRKNITLIRGLGHGAFGEVYEGQVSGMPNDPSPLQVAVKTLPEVCSEQDELDFLMEALIISKFNHQNIVRCIGVSLQSLPRFILLELMAGGDLKSFLRETRPRPSQPSSLAMLDLLHVARDIACGCQYLEENHFIHRDIAARNCLLTCPGPGRVAKIGDFGMARDIYRASYYRKGGCAMLPVKWMPPEAFMEGIFTSKTDTWSFGVLLWEIFSLGYMPYPSKSNQEVLEFVTSGGRMDPPKNCPGPVYRIMTQCWQHQPEDRPNFAIILERIEYCTQDPDVINTALPIEYGPLVEEEEKVPVRPKDPEGVPPLLVSQQAKREEERSPAAPPPLPTTSSGKAAKKPTAAEISVRVPRGPAVEGGHVNMAFSQSNPPSELHKVHGSRNKPTSLWNPTYGSWFTEKPTKKNNPIAKKEPHDRGNLGLEGSCTVPPNVATGRLPGASLLLEPSSLTANMKEVPLFRLRHFPCGNVNYGYQQQGLPLEAATAPGAGHYEDTILKSKNSMNQPGP

> <PDB ID(s) of Target Chain>
2XB7,2XBA,3AOX,5FTO,5FTQ,6E0R,6EBW,6EDL,6MX8,7JY4,7JYR,7JYS,7JYT,7LS0,7MZW,7MZY,7N00,7NX3,7NX4,8ARJ

> <UniProt (SwissProt) Recommended Name of Target Chain>
ALK tyrosine kinase receptor

> <UniProt (SwissProt) Entry Name of Target Chain>
ALK_HUMAN

> <UniProt (SwissProt) Primary ID of Target Chain>
Q9UM73

> <UniProt (SwissProt) Secondary ID(s) of Target Chain>
A6P4T4 A6P4V4 Q4ZFX9 Q53QQ6 Q53RZ4 Q59FI3 Q9Y4K6

> <UniProt (SwissProt) Alternative ID(s) of Target Chain>


> <UniProt (TrEMBL) Submitted Name of Target Chain>


> <UniProt (TrEMBL) Entry Name of Target Chain>


> <UniProt (TrEMBL) Primary ID of Target Chain>


> <UniProt (TrEMBL) Secondary ID(s) of Target Chain>


> <UniProt (TrEMBL) Alternative ID(s) of Target Chain>


$$$$

  SciTegic09261414532D

 30 33  0  0  0  0            999 V2000
   22.0185  -11.1211    0.0000 C   0  0
   21.2964  -11.5122    0.0000 C   0  0
   19.8604  -12.2972    0.0000 C   0  0
   19.8795  -11.4791    0.0000 C   0  0
   20.5975  -11.0866    0.0000 N   0  0
   21.2773  -12.3303    0.0000 C   0  0
   20.5593  -12.7228    0.0000 N   0  0
   19.1423  -12.6897    0.0000 N   0  0
   19.1806  -11.0535    0.0000 O   0  0
   19.1999  -10.2352    0.0000 C   0  0  2  0  0  0
   19.9373   -9.8811    0.0000 C   0  0
   18.4972   -9.8159    0.0000 C   0  0
   17.7828  -10.2148    0.0000 C   0  0
   17.0800   -9.7956    0.0000 C   0  0
   17.0918   -8.9774    0.0000 C   0  0
   17.8063   -8.5784    0.0000 C   0  0
   18.5090   -8.9977    0.0000 C   0  0
   16.3656  -10.1945    0.0000 F   0  0
   19.2225   -8.5993    0.0000 N   0  0
   19.9613   -8.9433    0.0000 N   0  0
   20.5168   -8.3439    0.0000 C   0  0
   20.1184   -7.6303    0.0000 C   0  0
   19.3167   -7.7889    0.0000 N   0  0
   22.7158  -11.5524    0.0000 C   0  0
   23.4374  -11.1620    0.0000 N   0  0
   23.4602  -10.3402    0.0000 C   0  0
   22.7555   -9.9105    0.0000 C   0  0
   22.0368  -10.3033    0.0000 C   0  0
   22.6921  -12.3693    0.0000 O   0  0
   21.9729  -12.7572    0.0000 C   0  0
  2  1  1  0
  3  4  1  0
  4  5  2  0
  5  2  1  0
  2  6  2  0
  6  7  1  0
  3  7  2  0
  3  8  1  0
 10 11  1  1
  9 10  1  0
 12 13  1  0
 13 14  2  0
 14 15  1  0
 15 16  2  0
 16 17  1  0
 12 17  2  0
 14 18  1  0
 10 12  1  0
  4  9  1  0
 17 19  1  0
 19 20  1  0
 20 21  2  0
 21 22  1  0
 22 23  2  0
 23 19  1  0
  1 24  2  0
 24 25  1  0
 25 26  2  0
 26 27  1  0
 27 28  2  0
 28  1  1  0
 24 29  1  0
 29 30  1  0
M  END
> <From>
www.bindingDB.org

> <BindingDB Reactant_set_id>
50103569

> <Ligand InChI>
InChI=1S/C20H18FN7O2/c1-12(15-10-13(21)5-6-17(15)28-25-8-9-26-28)30-20-18(22)24-11-16(27-20)14-4-3-7-23-19(14)29-2/h3-12H,1-2H3,(H2,22,24)/t12-/m1/s1

> <Ligand InChI Key>
RXGKFHNEIKQBGI-GFCCVEGCSA-N

> <BindingDB MonomerID>
50018821

> <BindingDB Ligand Name>
CHEMBL3286811

> <Target Name>
ALK tyrosine kinase receptor

> <Target Source Organism According to Curator or DataSource>
Homo sapiens

> <Ki (nM)>
 0.700000

> <IC50 (nM)>


> <Kd (nM)>


> <EC50 (nM)>


> <kon (M-1-s-1)>


> <koff (s-1)>


> <pH>


> <Temp C>


> <Curation/DataSource>
ChEMBL

> <Article DOI>
10.1021/jm500261q

> <BindingDB Entry DOI>
10.7270/Q2K35W68

> <PMID>
24819116

> <PubChem AID>


> <Patent Number>


> <Authors>
Johnson, TW; Richardson, PF; Bailey, S; Brooun, A; Burke, BJ; Collins, MR; Cui, JJ; Deal, JG; Deng, YL; Dinh, D; Engstrom, LD; He, M; Hoffman, J; Hoffman, RL; Huang, Q; Kania, RS; Kath, JC; Lam, H; Lam, JL; Le, PT; Lingardo, L; Liu, W; McTigue, M; Palmer, CL; Sach, NW; Smeal, T; Smith, GL; Stewart, AE; Timofeevski, S; Zhu, H; Zhu, J; Zou, HY; Edwards, MP

> <Date of publication>
6/12/2014

> <Date in BindingDB>
2/11/2015

> <Institution>
Pfizer Inc

> <Link to Ligand in BindingDB>
http://www.bindingdb.org/bind/chemsearch/marvin/MolStructure.jsp?monomerid=50018821

> <Link to Ligand-Target Pair in BindingDB>
http://www.bindingdb.org/jsp/dbsearch/PrimarySearch_ki.jsp?energyterm=kJ/mole&tag=pol&polymerid=5809&target=ALK+tyrosine+kinase+receptor&column=ki&startPg=0&Increment=50&submit=Search

> <Link to Ligand-Target Pair in BindingDB>
http://www.bindingdb.org/jsp/dbsearch/PrimarySearch_ki.jsp?energyterm=kJ/mole&tag=r21&monomerid=50018821&enzyme=ALK+tyrosine+kinase+receptor&column=ki&startPg=0&Increment=50&submit=Search

> <Ligand HET ID in PDB>


> <PDB ID(s) for Ligand-Target Complex>


> <PubChem CID of Ligand>
89713230

> <PubChem SID of Ligand>
103929874

> <ChEBI ID of Ligand>


> <ChEMBL ID of Ligand>
CHEMBL3286811

> <DrugBank ID of Ligand>


> <IUPHAR_GRAC ID of Ligand>


> <KEGG ID of Ligand>


> <ZINC ID of Ligand>
ZINC33891536

> <Number of Protein Chains in Target (bigger than 1 implies a multichain complex)>
1

> <BindingDB Target Chain Sequence>
MGAIGLLWLLPLLLSTAAVGSGMGTGQRAGSPAAGPPLQPREPLSYSRLQRKSLAVDFVVPSLFRVYARDLLLPPSSSELKAGRPEARGSLALDCAPLLRLLGPAPGVSWTAGSPAPAEARTLSRVLKGGSVRKLRRAKQLVLELGEEAILEGCVGPPGEAAVGLLQFNLSELFSWWIRQGEGRLRIRLMPEKKASEVGREGRLSAAIRASQPRLLFQIFGTGHSSLESPTNMPSPSPDYFTWNLTWIMKDSFPFLSHRSRYGLECSFDFPCELEYSPPLHDLRNQSWSWRRIPSEEASQMDLLDGPGAERSKEMPRGSFLLLNTSADSKHTILSPWMRSSSEHCTLAVSVHRHLQPSGRYIAQLLPHNEAAREILLMPTPGKHGWTVLQGRIGRPDNPFRVALEYISSGNRSLSAVDFFALKNCSEGTSPGSKMALQSSFTCWNGTVLQLGQACDFHQDCAQGEDESQMCRKLPVGFYCNFEDGFCGWTQGTLSPHTPQWQVRTLKDARFQDHQDHALLLSTTDVPASESATVTSATFPAPIKSSPCELRMSWLIRGVLRGNVSLVLVENKTGKEQGRMVWHVAAYEGLSLWQWMVLPLLDVSDRFWLQMVAWWGQGSRAIVAFDNISISLDCYLTISGEDKILQNTAPKSRNLFERNPNKELKPGENSPRQTPIFDPTVHWLFTTCGASGPHGPTQAQCNNAYQNSNLSVEVGSEGPLKGIQIWKVPATDTYSISGYGAAGGKGGKNTMMRSHGVSVLGIFNLEKDDMLYILVGQQGEDACPSTNQLIQKVCIGENNVIEEEIRVNRSVHEWAGGGGGGGGATYVFKMKDGVPVPLIIAAGGGGRAYGAKTDTFHPERLENNSSVLGLNGNSGAAGGGGGWNDNTSLLWAGKSLQEGATGGHSCPQAMKKWGWETRGGFGGGGGGCSSGGGGGGYIGGNAASNNDPEMDGEDGVSFISPLGILYTPALKVMEGHGEVNIKHYLNCSHCEVDECHMDPESHKVICFCDHGTVLAEDGVSCIVSPTPEPHLPLSLILSVVTSALVAALVLAFSGIMIVYRRKHQELQAMQMELQSPEYKLSKLRTSTIMTDYNPNYCFAGKTSSISDLKEVPRKNITLIRGLGHGAFGEVYEGQVSGMPNDPSPLQVAVKTLPEVCSEQDELDFLMEALIISKFNHQNIVRCIGVSLQSLPRFILLELMAGGDLKSFLRETRPRPSQPSSLAMLDLLHVARDIACGCQYLEENHFIHRDIAARNCLLTCPGPGRVAKIGDFGMARDIYRASYYRKGGCAMLPVKWMPPEAFMEGIFTSKTDTWSFGVLLWEIFSLGYMPYPSKSNQEVLEFVTSGGRMDPPKNCPGPVYRIMTQCWQHQPEDRPNFAIILERIEYCTQDPDVINTALPIEYGPLVEEEEKVPVRPKDPEGVPPLLVSQQAKREEERSPAAPPPLPTTSSGKAAKKPTAAEISVRVPRGPAVEGGHVNMAFSQSNPPSELHKVHGSRNKPTSLWNPTYGSWFTEKPTKKNNPIAKKEPHDRGNLGLEGSCTVPPNVATGRLPGASLLLEPSSLTANMKEVPLFRLRHFPCGNVNYGYQQQGLPLEAATAPGAGHYEDTILKSKNSMNQPGP

> <PDB ID(s) of Target Chain>
2XB7,2XBA,3AOX,5FTO,5FTQ,6E0R,6EBW,6EDL,6MX8,7JY4,7JYR,7JYS,7JYT,7LS0,7MZW,7MZY,7N00,7NX3,7NX4,8ARJ

> <UniProt (SwissProt) Recommended Name of Target Chain>
ALK tyrosine kinase receptor

> <UniProt (SwissProt) Entry Name of Target Chain>
ALK_HUMAN

> <UniProt (SwissProt) Primary ID of Target Chain>
Q9UM73

> <UniProt (SwissProt) Secondary ID(s) of Target Chain>
A6P4T4 A6P4V4 Q4ZFX9 Q53QQ6 Q53RZ4 Q59FI3 Q9Y4K6

> <UniProt (SwissProt) Alternative ID(s) of Target Chain>


> <UniProt (TrEMBL) Submitted Name of Target Chain>


> <UniProt (TrEMBL) Entry Name of Target Chain>


> <UniProt (TrEMBL) Primary ID of Target Chain>


> <UniProt (TrEMBL) Secondary ID(s) of Target Chain>


> <UniProt (TrEMBL) Alternative ID(s) of Target Chain>


$$$$

  SciTegic09261414532D

 30 33  0  0  0  0            999 V2000
   15.5386   -5.1488    0.0000 O   0  0
   14.8183   -5.5433    0.0000 C   0  0  1  0  0  0
   14.1133   -5.1148    0.0000 C   0  0
   14.1378   -4.2915    0.0000 C   0  0
   13.4336   -3.8630    0.0000 C   0  0
   12.7123   -4.2576    0.0000 C   0  0
   12.6952   -5.0851    0.0000 C   0  0
   13.4001   -5.5098    0.0000 C   0  0
   14.8637   -3.8992    0.0000 C   0  0
   11.9721   -5.4822    0.0000 F   0  0
   18.4105   -4.3883    0.0000 C   0  0
   16.2248   -5.5766    0.0000 C   0  0
   17.6719   -5.6120    0.0000 C   0  0
   16.2249   -6.4022    0.0000 C   0  0
   16.9702   -5.1828    0.0000 C   0  0
   17.6523   -6.4363    0.0000 C   0  0
   16.9309   -6.8314    0.0000 N   0  0
   15.4994   -6.7973    0.0000 N   0  0
   18.3950   -5.2168    0.0000 C   0  0
   19.1710   -5.4856    0.0000 C   0  0
   19.6711   -4.8299    0.0000 N   0  0
   19.2011   -4.1567    0.0000 N   0  0
   14.3999   -6.2556    0.0000 C   0  0
   15.5793   -4.3397    0.0000 O   0  0
   14.8873   -3.0593    0.0000 N   0  0
   15.6266   -2.6597    0.0000 C   0  0
   14.1716   -2.6188    0.0000 C   0  0
   20.5114   -4.8476    0.0000 C   0  0
   19.4137   -6.2884    0.0000 C   0  0
   19.6562   -7.0930    0.0000 N   0  0
 12  1  1  0
  1  2  1  0
  2  3  1  0
  3  4  2  0
  4  5  1  0
  5  6  2  0
  6  7  1  0
  7  8  2  0
  8  3  1  0
  4  9  1  0
  7 10  1  0
 14 12  1  0
 12 15  2  0
 15 13  1  0
 13 16  2  0
 16 17  1  0
 14 17  2  0
 14 18  1  0
 13 19  1  0
 11 19  1  0
 19 20  2  0
 20 21  1  0
 21 22  1  0
 22 11  2  0
  2 23  1  6
  9 24  2  0
  9 25  1  0
 25 26  1  0
 25 27  1  0
 26 11  1  0
 21 28  1  0
 29 30  3  0
 20 29  1  0
M  END
> <From>
www.bindingDB.org

> <BindingDB Reactant_set_id>
50103674

> <Ligand InChI>
InChI=1S/C21H19FN6O2/c1-11-15-7-13(22)4-5-14(15)21(29)27(2)10-16-19(17(8-23)28(3)26-16)12-6-18(30-11)20(24)25-9-12/h4-7,9,11H,10H2,1-3H3,(H2,24,25)/t11-/m1/s1

> <Ligand InChI Key>
IIXWYSCJSQVBQM-LLVKDONJSA-N

> <BindingDB MonomerID>
50018830

> <BindingDB Ligand Name>
CHEMBL3286830::US10543199, Compound PF-06463922::US10780082, Compound PF-06463922::US11517561, Compound PF-06463922

> <Target Name>
ALK tyrosine kinase receptor

> <Target Source Organism According to Curator or DataSource>
Homo sapiens

> <Ki (nM)>
 0.700000

> <IC50 (nM)>


> <Kd (nM)>


> <EC50 (nM)>


> <kon (M-1-s-1)>


> <koff (s-1)>


> <pH>


> <Temp C>


> <Curation/DataSource>
ChEMBL

> <Article DOI>
10.1021/jm500261q

> <BindingDB Entry DOI>
10.7270/Q2K35W68

> <PMID>
24819116

> <PubChem AID>


> <Patent Number>


> <Authors>
Johnson, TW; Richardson, PF; Bailey, S; Brooun, A; Burke, BJ; Collins, MR; Cui, JJ; Deal, JG; Deng, YL; Dinh, D; Engstrom, LD; He, M; Hoffman, J; Hoffman, RL; Huang, Q; Kania, RS; Kath, JC; Lam, H; Lam, JL; Le, PT; Lingardo, L; Liu, W; McTigue, M; Palmer, CL; Sach, NW; Smeal, T; Smith, GL; Stewart, AE; Timofeevski, S; Zhu, H; Zhu, J; Zou, HY; Edwards, MP

> <Date of publication>
6/12/2014

> <Date in BindingDB>
2/11/2015

> <Institution>
Pfizer Inc

> <Link to Ligand in BindingDB>
http://www.bindingdb.org/bind/chemsearch/marvin/MolStructure.jsp?monomerid=50018830

> <Link to Ligand-Target Pair in BindingDB>
http://www.bindingdb.org/jsp/dbsearch/PrimarySearch_ki.jsp?energyterm=kJ/mole&tag=pol&polymerid=5809&target=ALK+tyrosine+kinase+receptor&column=ki&startPg=0&Increment=50&submit=Search

> <Link to Ligand-Target Pair in BindingDB>
http://www.bindingdb.org/jsp/dbsearch/PrimarySearch_ki.jsp?energyterm=kJ/mole&tag=r21&monomerid=50018830&enzyme=ALK+tyrosine+kinase+receptor&column=ki&startPg=0&Increment=50&submit=Search

> <Ligand HET ID in PDB>
53P

> <PDB ID(s) for Ligand-Target Complex>


> <PubChem CID of Ligand>
71731823

> <PubChem SID of Ligand>
103929883

> <ChEBI ID of Ligand>


> <ChEMBL ID of Ligand>
CHEMBL3286830

> <DrugBank ID of Ligand>


> <IUPHAR_GRAC ID of Ligand>


> <KEGG ID of Ligand>


> <ZINC ID of Ligand>
ZINC33891516

> <Number of Protein Chains in Target (bigger than 1 implies a multichain complex)>
1

> <BindingDB Target Chain Sequence>
MGAIGLLWLLPLLLSTAAVGSGMGTGQRAGSPAAGPPLQPREPLSYSRLQRKSLAVDFVVPSLFRVYARDLLLPPSSSELKAGRPEARGSLALDCAPLLRLLGPAPGVSWTAGSPAPAEARTLSRVLKGGSVRKLRRAKQLVLELGEEAILEGCVGPPGEAAVGLLQFNLSELFSWWIRQGEGRLRIRLMPEKKASEVGREGRLSAAIRASQPRLLFQIFGTGHSSLESPTNMPSPSPDYFTWNLTWIMKDSFPFLSHRSRYGLECSFDFPCELEYSPPLHDLRNQSWSWRRIPSEEASQMDLLDGPGAERSKEMPRGSFLLLNTSADSKHTILSPWMRSSSEHCTLAVSVHRHLQPSGRYIAQLLPHNEAAREILLMPTPGKHGWTVLQGRIGRPDNPFRVALEYISSGNRSLSAVDFFALKNCSEGTSPGSKMALQSSFTCWNGTVLQLGQACDFHQDCAQGEDESQMCRKLPVGFYCNFEDGFCGWTQGTLSPHTPQWQVRTLKDARFQDHQDHALLLSTTDVPASESATVTSATFPAPIKSSPCELRMSWLIRGVLRGNVSLVLVENKTGKEQGRMVWHVAAYEGLSLWQWMVLPLLDVSDRFWLQMVAWWGQGSRAIVAFDNISISLDCYLTISGEDKILQNTAPKSRNLFERNPNKELKPGENSPRQTPIFDPTVHWLFTTCGASGPHGPTQAQCNNAYQNSNLSVEVGSEGPLKGIQIWKVPATDTYSISGYGAAGGKGGKNTMMRSHGVSVLGIFNLEKDDMLYILVGQQGEDACPSTNQLIQKVCIGENNVIEEEIRVNRSVHEWAGGGGGGGGATYVFKMKDGVPVPLIIAAGGGGRAYGAKTDTFHPERLENNSSVLGLNGNSGAAGGGGGWNDNTSLLWAGKSLQEGATGGHSCPQAMKKWGWETRGGFGGGGGGCSSGGGGGGYIGGNAASNNDPEMDGEDGVSFISPLGILYTPALKVMEGHGEVNIKHYLNCSHCEVDECHMDPESHKVICFCDHGTVLAEDGVSCIVSPTPEPHLPLSLILSVVTSALVAALVLAFSGIMIVYRRKHQELQAMQMELQSPEYKLSKLRTSTIMTDYNPNYCFAGKTSSISDLKEVPRKNITLIRGLGHGAFGEVYEGQVSGMPNDPSPLQVAVKTLPEVCSEQDELDFLMEALIISKFNHQNIVRCIGVSLQSLPRFILLELMAGGDLKSFLRETRPRPSQPSSLAMLDLLHVARDIACGCQYLEENHFIHRDIAARNCLLTCPGPGRVAKIGDFGMARDIYRASYYRKGGCAMLPVKWMPPEAFMEGIFTSKTDTWSFGVLLWEIFSLGYMPYPSKSNQEVLEFVTSGGRMDPPKNCPGPVYRIMTQCWQHQPEDRPNFAIILERIEYCTQDPDVINTALPIEYGPLVEEEEKVPVRPKDPEGVPPLLVSQQAKREEERSPAAPPPLPTTSSGKAAKKPTAAEISVRVPRGPAVEGGHVNMAFSQSNPPSELHKVHGSRNKPTSLWNPTYGSWFTEKPTKKNNPIAKKEPHDRGNLGLEGSCTVPPNVATGRLPGASLLLEPSSLTANMKEVPLFRLRHFPCGNVNYGYQQQGLPLEAATAPGAGHYEDTILKSKNSMNQPGP

> <PDB ID(s) of Target Chain>
2XB7,2XBA,3AOX,5FTO,5FTQ,6E0R,6EBW,6EDL,6MX8,7JY4,7JYR,7JYS,7JYT,7LS0,7MZW,7MZY,7N00,7NX3,7NX4,8ARJ

> <UniProt (SwissProt) Recommended Name of Target Chain>
ALK tyrosine kinase receptor

> <UniProt (SwissProt) Entry Name of Target Chain>
ALK_HUMAN

> <UniProt (SwissProt) Primary ID of Target Chain>
Q9UM73

> <UniProt (SwissProt) Secondary ID(s) of Target Chain>
A6P4T4 A6P4V4 Q4ZFX9 Q53QQ6 Q53RZ4 Q59FI3 Q9Y4K6

> <UniProt (SwissProt) Alternative ID(s) of Target Chain>


> <UniProt (TrEMBL) Submitted Name of Target Chain>


> <UniProt (TrEMBL) Entry Name of Target Chain>


> <UniProt (TrEMBL) Primary ID of Target Chain>


> <UniProt (TrEMBL) Secondary ID(s) of Target Chain>


> <UniProt (TrEMBL) Alternative ID(s) of Target Chain>


$$$$
 
  Mrv0541 11221423062D          

 30 33  0  0  0  0            999 V2000
   -0.9640    1.6774    0.0000 C   0  0  0  0  0  0  0  0  0  0  0  0
   -0.9653    0.8499    0.0000 C   0  0  0  0  0  0  0  0  0  0  0  0
   -0.2523    0.4370    0.0000 C   0  0  0  0  0  0  0  0  0  0  0  0
    0.4669    0.8504    0.0000 C   0  0  0  0  0  0  0  0  0  0  0  0
    0.4637    1.6815    0.0000 C   0  0  0  0  0  0  0  0  0  0  0  0
   -0.2543    2.0903    0.0000 N   0  0  0  0  0  0  0  0  0  0  0  0
   -1.6814    0.4425    0.0000 C   0  0  0  0  0  0  0  0  0  0  0  0
   -2.4724    0.6769    0.0000 C   0  0  0  0  0  0  0  0  0  0  0  0
   -2.9398   -0.0030    0.0000 N   0  0  0  0  0  0  0  0  0  0  0  0
   -2.4376   -0.6576    0.0000 N   0  0  0  0  0  0  0  0  0  0  0  0
   -1.6599   -0.3821    0.0000 C   0  0  0  0  0  0  0  0  0  0  0  0
   -3.7651   -0.0266    0.0000 C   0  0  0  0  0  0  0  0  0  0  0  0
   -4.1948    0.6787    0.0000 C   0  0  0  0  0  0  0  0  0  0  0  0
   -5.0160    0.6593    0.0000 C   0  0  0  0  0  0  0  0  0  0  0  0
   -5.4137   -0.0639    0.0000 N   0  0  0  0  0  0  0  0  0  0  0  0
   -4.9839   -0.7692    0.0000 C   0  0  0  0  0  0  0  0  0  0  0  0
   -4.1564   -0.7513    0.0000 C   0  0  0  0  0  0  0  0  0  0  0  0
    1.1762    2.0975    0.0000 N   0  0  0  0  0  0  0  0  0  0  0  0
    1.1818    0.4386    0.0000 O   0  0  0  0  0  0  0  0  0  0  0  0
    1.1825   -0.3864    0.0000 C   0  0  1  0  0  0  0  0  0  0  0  0
    1.8973   -0.7982    0.0000 C   0  0  0  0  0  0  0  0  0  0  0  0
    0.4685   -0.7996    0.0000 C   0  0  0  0  0  0  0  0  0  0  0  0
    1.8953   -1.6235    0.0000 C   0  0  0  0  0  0  0  0  0  0  0  0
    2.6093   -2.0354    0.0000 C   0  0  0  0  0  0  0  0  0  0  0  0
    3.3244   -1.6221    0.0000 C   0  0  0  0  0  0  0  0  0  0  0  0
    3.3210   -0.7930    0.0000 C   0  0  0  0  0  0  0  0  0  0  0  0
    2.6065   -0.3849    0.0000 C   0  0  0  0  0  0  0  0  0  0  0  0
    2.6028    0.4401    0.0000 Cl  0  0  0  0  0  0  0  0  0  0  0  0
    4.0337   -0.3773    0.0000 F   0  0  0  0  0  0  0  0  0  0  0  0
    1.1806   -2.0354    0.0000 Cl  0  0  0  0  0  0  0  0  0  0  0  0
 12 17  1  0  0  0  0
 13 14  1  0  0  0  0
 14 15  1  0  0  0  0
 15 16  1  0  0  0  0
 16 17  1  0  0  0  0
  9 12  1  0  0  0  0
  4  5  2  0  0  0  0
  5 18  1  0  0  0  0
  2  3  2  0  0  0  0
  4 19  1  0  0  0  0
  8  9  1  0  0  0  0
 20 19  1  0  0  0  0
  9 10  1  0  0  0  0
 20 21  1  0  0  0  0
 10 11  2  0  0  0  0
 20 22  1  1  0  0  0
 11  7  1  0  0  0  0
 21 23  2  0  0  0  0
  2  7  1  0  0  0  0
 23 24  1  0  0  0  0
 12 13  1  0  0  0  0
 24 25  2  0  0  0  0
  5  6  1  0  0  0  0
 25 26  1  0  0  0  0
  6  1  2  0  0  0  0
 26 27  2  0  0  0  0
 27 21  1  0  0  0  0
  7  8  2  0  0  0  0
 27 28  1  0  0  0  0
  1  2  1  0  0  0  0
 26 29  1  0  0  0  0
  3  4  1  0  0  0  0
 23 30  1  0  0  0  0
M  END
> <From>
www.bindingDB.org

> <BindingDB Reactant_set_id>
50103513

> <Ligand InChI>
InChI=1S/C21H22Cl2FN5O/c1-12(19-16(22)2-3-17(24)20(19)23)30-18-8-13(9-27-21(18)25)14-10-28-29(11-14)15-4-6-26-7-5-15/h2-3,8-12,15,26H,4-7H2,1H3,(H2,25,27)/t12-/m1/s1

> <Ligand InChI Key>
KTEIFNKAUNYNJU-GFCCVEGCSA-N

> <BindingDB MonomerID>
50306682

> <BindingDB Ligand Name>
(R)-3-(1-(2,6-dichloro-3-fluorophenyl)ethoxy)-5-(1-(piperidin-4-yl)-1H-pyrazol-4-yl)pyridin-2-amine::3-(2,6-dichloro-3-fluorobenzyloxy)-5-(1-(piperidin-4-yl)-1H-pyrazol-4-yl)pyridin-2-amine::3-[(1R)-1-(2,6-dichloro-3-fluorophenyl)ethoxy]-5-(1-piperidin-4-yl-1H-pyrazol-4-yl)pyridin-2-amine::CHEMBL601719::CRIZOTINIB::PF-2341066::US10370379, Crizotinib::US10543199, Compound Crizotinib::US10780082, Compound Crizotinib::US11059827, Compound Crizotinib::US11517561, Compound Crizotinib::US9126941, PF-2341066::US9199944, Crizotinib::US9226923, Crizotinib

> <Target Name>
ALK tyrosine kinase receptor

> <Target Source Organism According to Curator or DataSource>
Homo sapiens

> <Ki (nM)>
 0.740000

> <IC50 (nM)>


> <Kd (nM)>


> <EC50 (nM)>


> <kon (M-1-s-1)>


> <koff (s-1)>


> <pH>


> <Temp C>


> <Curation/DataSource>
ChEMBL

> <Article DOI>
10.1021/jm500261q

> <BindingDB Entry DOI>
10.7270/Q2K35W68

> <PMID>
24819116

> <PubChem AID>


> <Patent Number>


> <Authors>
Johnson, TW; Richardson, PF; Bailey, S; Brooun, A; Burke, BJ; Collins, MR; Cui, JJ; Deal, JG; Deng, YL; Dinh, D; Engstrom, LD; He, M; Hoffman, J; Hoffman, RL; Huang, Q; Kania, RS; Kath, JC; Lam, H; Lam, JL; Le, PT; Lingardo, L; Liu, W; McTigue, M; Palmer, CL; Sach, NW; Smeal, T; Smith, GL; Stewart, AE; Timofeevski, S; Zhu, H; Zhu, J; Zou, HY; Edwards, MP

> <Date of publication>
6/12/2014

> <Date in BindingDB>
2/11/2015

> <Institution>
Pfizer Inc

> <Link to Ligand in BindingDB>
http://www.bindingdb.org/bind/chemsearch/marvin/MolStructure.jsp?monomerid=50306682

> <Link to Ligand-Target Pair in BindingDB>
http://www.bindingdb.org/jsp/dbsearch/PrimarySearch_ki.jsp?energyterm=kJ/mole&tag=pol&polymerid=5809&target=ALK+tyrosine+kinase+receptor&column=ki&startPg=0&Increment=50&submit=Search

> <Link to Ligand-Target Pair in BindingDB>
http://www.bindingdb.org/jsp/dbsearch/PrimarySearch_ki.jsp?energyterm=kJ/mole&tag=r21&monomerid=50306682&enzyme=ALK+tyrosine+kinase+receptor&column=ki&startPg=0&Increment=50&submit=Search

> <Ligand HET ID in PDB>
VGH

> <PDB ID(s) for Ligand-Target Complex>
2YFX,5AAA,5AAC,5AAB,4ANS,4ANQ,2XP2,2WGJ,3ZBF,4C9W,6IMZ

> <PubChem CID of Ligand>
11626560

> <PubChem SID of Ligand>
104161043

> <ChEBI ID of Ligand>
64310

> <ChEMBL ID of Ligand>
CHEMBL601719

> <DrugBank ID of Ligand>
DB08700

> <IUPHAR_GRAC ID of Ligand>
4903

> <KEGG ID of Ligand>


> <ZINC ID of Ligand>
ZINC35902489

> <Number of Protein Chains in Target (bigger than 1 implies a multichain complex)>
1

> <BindingDB Target Chain Sequence>
MGAIGLLWLLPLLLSTAAVGSGMGTGQRAGSPAAGPPLQPREPLSYSRLQRKSLAVDFVVPSLFRVYARDLLLPPSSSELKAGRPEARGSLALDCAPLLRLLGPAPGVSWTAGSPAPAEARTLSRVLKGGSVRKLRRAKQLVLELGEEAILEGCVGPPGEAAVGLLQFNLSELFSWWIRQGEGRLRIRLMPEKKASEVGREGRLSAAIRASQPRLLFQIFGTGHSSLESPTNMPSPSPDYFTWNLTWIMKDSFPFLSHRSRYGLECSFDFPCELEYSPPLHDLRNQSWSWRRIPSEEASQMDLLDGPGAERSKEMPRGSFLLLNTSADSKHTILSPWMRSSSEHCTLAVSVHRHLQPSGRYIAQLLPHNEAAREILLMPTPGKHGWTVLQGRIGRPDNPFRVALEYISSGNRSLSAVDFFALKNCSEGTSPGSKMALQSSFTCWNGTVLQLGQACDFHQDCAQGEDESQMCRKLPVGFYCNFEDGFCGWTQGTLSPHTPQWQVRTLKDARFQDHQDHALLLSTTDVPASESATVTSATFPAPIKSSPCELRMSWLIRGVLRGNVSLVLVENKTGKEQGRMVWHVAAYEGLSLWQWMVLPLLDVSDRFWLQMVAWWGQGSRAIVAFDNISISLDCYLTISGEDKILQNTAPKSRNLFERNPNKELKPGENSPRQTPIFDPTVHWLFTTCGASGPHGPTQAQCNNAYQNSNLSVEVGSEGPLKGIQIWKVPATDTYSISGYGAAGGKGGKNTMMRSHGVSVLGIFNLEKDDMLYILVGQQGEDACPSTNQLIQKVCIGENNVIEEEIRVNRSVHEWAGGGGGGGGATYVFKMKDGVPVPLIIAAGGGGRAYGAKTDTFHPERLENNSSVLGLNGNSGAAGGGGGWNDNTSLLWAGKSLQEGATGGHSCPQAMKKWGWETRGGFGGGGGGCSSGGGGGGYIGGNAASNNDPEMDGEDGVSFISPLGILYTPALKVMEGHGEVNIKHYLNCSHCEVDECHMDPESHKVICFCDHGTVLAEDGVSCIVSPTPEPHLPLSLILSVVTSALVAALVLAFSGIMIVYRRKHQELQAMQMELQSPEYKLSKLRTSTIMTDYNPNYCFAGKTSSISDLKEVPRKNITLIRGLGHGAFGEVYEGQVSGMPNDPSPLQVAVKTLPEVCSEQDELDFLMEALIISKFNHQNIVRCIGVSLQSLPRFILLELMAGGDLKSFLRETRPRPSQPSSLAMLDLLHVARDIACGCQYLEENHFIHRDIAARNCLLTCPGPGRVAKIGDFGMARDIYRASYYRKGGCAMLPVKWMPPEAFMEGIFTSKTDTWSFGVLLWEIFSLGYMPYPSKSNQEVLEFVTSGGRMDPPKNCPGPVYRIMTQCWQHQPEDRPNFAIILERIEYCTQDPDVINTALPIEYGPLVEEEEKVPVRPKDPEGVPPLLVSQQAKREEERSPAAPPPLPTTSSGKAAKKPTAAEISVRVPRGPAVEGGHVNMAFSQSNPPSELHKVHGSRNKPTSLWNPTYGSWFTEKPTKKNNPIAKKEPHDRGNLGLEGSCTVPPNVATGRLPGASLLLEPSSLTANMKEVPLFRLRHFPCGNVNYGYQQQGLPLEAATAPGAGHYEDTILKSKNSMNQPGP

> <PDB ID(s) of Target Chain>
2XB7,2XBA,3AOX,5FTO,5FTQ,6E0R,6EBW,6EDL,6MX8,7JY4,7JYR,7JYS,7JYT,7LS0,7MZW,7MZY,7N00,7NX3,7NX4,8ARJ

> <UniProt (SwissProt) Recommended Name of Target Chain>
ALK tyrosine kinase receptor

> <UniProt (SwissProt) Entry Name of Target Chain>
ALK_HUMAN

> <UniProt (SwissProt) Primary ID of Target Chain>
Q9UM73

> <UniProt (SwissProt) Secondary ID(s) of Target Chain>
A6P4T4 A6P4V4 Q4ZFX9 Q53QQ6 Q53RZ4 Q59FI3 Q9Y4K6

> <UniProt (SwissProt) Alternative ID(s) of Target Chain>


> <UniProt (TrEMBL) Submitted Name of Target Chain>


> <UniProt (TrEMBL) Entry Name of Target Chain>


> <UniProt (TrEMBL) Primary ID of Target Chain>


> <UniProt (TrEMBL) Secondary ID(s) of Target Chain>


> <UniProt (TrEMBL) Alternative ID(s) of Target Chain>


$$$$

  SciTegic09261414532D

 29 31  0  0  0  0            999 V2000
   29.5631  -11.0840    0.0000 C   0  0
   28.8410  -11.4751    0.0000 C   0  0
   27.4049  -12.2600    0.0000 C   0  0
   27.4241  -11.4420    0.0000 C   0  0
   28.1421  -11.0495    0.0000 N   0  0
   28.8219  -12.2932    0.0000 C   0  0
   28.1039  -12.6856    0.0000 N   0  0
   26.6869  -12.6525    0.0000 N   0  0
   26.7252  -11.0164    0.0000 O   0  0
   26.7445  -10.1981    0.0000 C   0  0  2  0  0  0
   27.4819   -9.8439    0.0000 C   0  0
   26.0418   -9.7788    0.0000 C   0  0
   25.3273  -10.1777    0.0000 C   0  0
   24.6246   -9.7584    0.0000 C   0  0
   24.6364   -8.9402    0.0000 C   0  0
   25.3508   -8.5413    0.0000 C   0  0
   26.0535   -8.9606    0.0000 C   0  0
   23.9101  -10.1573    0.0000 F   0  0
   30.2604  -11.5153    0.0000 C   0  0
   30.9820  -11.1249    0.0000 N   0  0
   31.0048  -10.3031    0.0000 C   0  0
   30.3001   -9.8733    0.0000 C   0  0
   29.5813  -10.2662    0.0000 C   0  0
   30.2367  -12.3321    0.0000 O   0  0
   29.5175  -12.7200    0.0000 C   0  0
   26.7670   -8.5622    0.0000 C   0  0
   27.4688   -8.9809    0.0000 O   0  0
   26.7788   -7.7451    0.0000 N   0  0
   27.4923   -7.3467    0.0000 C   0  0
  2  1  1  0
  3  4  1  0
  4  5  2  0
  5  2  1  0
  2  6  2  0
  6  7  1  0
  3  7  2  0
  3  8  1  0
 10 11  1  1
  9 10  1  0
 12 13  1  0
 13 14  2  0
 14 15  1  0
 15 16  2  0
 16 17  1  0
 12 17  2  0
 14 18  1  0
 10 12  1  0
  4  9  1  0
  1 19  2  0
 19 20  1  0
 20 21  2  0
 21 22  1  0
 22 23  2  0
 23  1  1  0
 19 24  1  0
 24 25  1  0
 17 26  1  0
 26 27  2  0
 26 28  1  0
 28 29  1  0
M  END
> <From>
www.bindingDB.org

> <BindingDB Reactant_set_id>
50103526

> <Ligand InChI>
InChI=1S/C20H20FN5O3/c1-11(15-9-12(21)6-7-13(15)18(27)23-2)29-20-17(22)25-10-16(26-20)14-5-4-8-24-19(14)28-3/h4-11H,1-3H3,(H2,22,25)(H,23,27)/t11-/m1/s1

> <Ligand InChI Key>
AMLQLZSHSQNJKQ-LLVKDONJSA-N

> <BindingDB MonomerID>
50018822

> <BindingDB Ligand Name>
CHEMBL3286812

> <Target Name>
ALK tyrosine kinase receptor

> <Target Source Organism According to Curator or DataSource>
Homo sapiens

> <Ki (nM)>
 0.850000

> <IC50 (nM)>


> <Kd (nM)>


> <EC50 (nM)>


> <kon (M-1-s-1)>


> <koff (s-1)>


> <pH>


> <Temp C>


> <Curation/DataSource>
ChEMBL

> <Article DOI>
10.1021/jm500261q

> <BindingDB Entry DOI>
10.7270/Q2K35W68

> <PMID>
24819116

> <PubChem AID>


> <Patent Number>


> <Authors>
Johnson, TW; Richardson, PF; Bailey, S; Brooun, A; Burke, BJ; Collins, MR; Cui, JJ; Deal, JG; Deng, YL; Dinh, D; Engstrom, LD; He, M; Hoffman, J; Hoffman, RL; Huang, Q; Kania, RS; Kath, JC; Lam, H; Lam, JL; Le, PT; Lingardo, L; Liu, W; McTigue, M; Palmer, CL; Sach, NW; Smeal, T; Smith, GL; Stewart, AE; Timofeevski, S; Zhu, H; Zhu, J; Zou, HY; Edwards, MP

> <Date of publication>
6/12/2014

> <Date in BindingDB>
2/11/2015

> <Institution>
Pfizer Inc

> <Link to Ligand in BindingDB>
http://www.bindingdb.org/bind/chemsearch/marvin/MolStructure.jsp?monomerid=50018822

> <Link to Ligand-Target Pair in BindingDB>
http://www.bindingdb.org/jsp/dbsearch/PrimarySearch_ki.jsp?energyterm=kJ/mole&tag=pol&polymerid=5809&target=ALK+tyrosine+kinase+receptor&column=ki&startPg=0&Increment=50&submit=Search

> <Link to Ligand-Target Pair in BindingDB>
http://www.bindingdb.org/jsp/dbsearch/PrimarySearch_ki.jsp?energyterm=kJ/mole&tag=r21&monomerid=50018822&enzyme=ALK+tyrosine+kinase+receptor&column=ki&startPg=0&Increment=50&submit=Search

> <Ligand HET ID in PDB>
YPW

> <PDB ID(s) for Ligand-Target Complex>
4CMO

> <PubChem CID of Ligand>
73819542

> <PubChem SID of Ligand>
103929875

> <ChEBI ID of Ligand>


> <ChEMBL ID of Ligand>
CHEMBL3286812

> <DrugBank ID of Ligand>


> <IUPHAR_GRAC ID of Ligand>


> <KEGG ID of Ligand>


> <ZINC ID of Ligand>
ZINC33891515

> <Number of Protein Chains in Target (bigger than 1 implies a multichain complex)>
1

> <BindingDB Target Chain Sequence>
MGAIGLLWLLPLLLSTAAVGSGMGTGQRAGSPAAGPPLQPREPLSYSRLQRKSLAVDFVVPSLFRVYARDLLLPPSSSELKAGRPEARGSLALDCAPLLRLLGPAPGVSWTAGSPAPAEARTLSRVLKGGSVRKLRRAKQLVLELGEEAILEGCVGPPGEAAVGLLQFNLSELFSWWIRQGEGRLRIRLMPEKKASEVGREGRLSAAIRASQPRLLFQIFGTGHSSLESPTNMPSPSPDYFTWNLTWIMKDSFPFLSHRSRYGLECSFDFPCELEYSPPLHDLRNQSWSWRRIPSEEASQMDLLDGPGAERSKEMPRGSFLLLNTSADSKHTILSPWMRSSSEHCTLAVSVHRHLQPSGRYIAQLLPHNEAAREILLMPTPGKHGWTVLQGRIGRPDNPFRVALEYISSGNRSLSAVDFFALKNCSEGTSPGSKMALQSSFTCWNGTVLQLGQACDFHQDCAQGEDESQMCRKLPVGFYCNFEDGFCGWTQGTLSPHTPQWQVRTLKDARFQDHQDHALLLSTTDVPASESATVTSATFPAPIKSSPCELRMSWLIRGVLRGNVSLVLVENKTGKEQGRMVWHVAAYEGLSLWQWMVLPLLDVSDRFWLQMVAWWGQGSRAIVAFDNISISLDCYLTISGEDKILQNTAPKSRNLFERNPNKELKPGENSPRQTPIFDPTVHWLFTTCGASGPHGPTQAQCNNAYQNSNLSVEVGSEGPLKGIQIWKVPATDTYSISGYGAAGGKGGKNTMMRSHGVSVLGIFNLEKDDMLYILVGQQGEDACPSTNQLIQKVCIGENNVIEEEIRVNRSVHEWAGGGGGGGGATYVFKMKDGVPVPLIIAAGGGGRAYGAKTDTFHPERLENNSSVLGLNGNSGAAGGGGGWNDNTSLLWAGKSLQEGATGGHSCPQAMKKWGWETRGGFGGGGGGCSSGGGGGGYIGGNAASNNDPEMDGEDGVSFISPLGILYTPALKVMEGHGEVNIKHYLNCSHCEVDECHMDPESHKVICFCDHGTVLAEDGVSCIVSPTPEPHLPLSLILSVVTSALVAALVLAFSGIMIVYRRKHQELQAMQMELQSPEYKLSKLRTSTIMTDYNPNYCFAGKTSSISDLKEVPRKNITLIRGLGHGAFGEVYEGQVSGMPNDPSPLQVAVKTLPEVCSEQDELDFLMEALIISKFNHQNIVRCIGVSLQSLPRFILLELMAGGDLKSFLRETRPRPSQPSSLAMLDLLHVARDIACGCQYLEENHFIHRDIAARNCLLTCPGPGRVAKIGDFGMARDIYRASYYRKGGCAMLPVKWMPPEAFMEGIFTSKTDTWSFGVLLWEIFSLGYMPYPSKSNQEVLEFVTSGGRMDPPKNCPGPVYRIMTQCWQHQPEDRPNFAIILERIEYCTQDPDVINTALPIEYGPLVEEEEKVPVRPKDPEGVPPLLVSQQAKREEERSPAAPPPLPTTSSGKAAKKPTAAEISVRVPRGPAVEGGHVNMAFSQSNPPSELHKVHGSRNKPTSLWNPTYGSWFTEKPTKKNNPIAKKEPHDRGNLGLEGSCTVPPNVATGRLPGASLLLEPSSLTANMKEVPLFRLRHFPCGNVNYGYQQQGLPLEAATAPGAGHYEDTILKSKNSMNQPGP

> <PDB ID(s) of Target Chain>
2XB7,2XBA,3AOX,5FTO,5FTQ,6E0R,6EBW,6EDL,6MX8,7JY4,7JYR,7JYS,7JYT,7LS0,7MZW,7MZY,7N00,7NX3,7NX4,8ARJ

> <UniProt (SwissProt) Recommended Name of Target Chain>
ALK tyrosine kinase receptor

> <UniProt (SwissProt) Entry Name of Target Chain>
ALK_HUMAN

> <UniProt (SwissProt) Primary ID of Target Chain>
Q9UM73

> <UniProt (SwissProt) Secondary ID(s) of Target Chain>
A6P4T4 A6P4V4 Q4ZFX9 Q53QQ6 Q53RZ4 Q59FI3 Q9Y4K6

> <UniProt (SwissProt) Alternative ID(s) of Target Chain>


> <UniProt (TrEMBL) Submitted Name of Target Chain>


> <UniProt (TrEMBL) Entry Name of Target Chain>


> <UniProt (TrEMBL) Primary ID of Target Chain>


> <UniProt (TrEMBL) Secondary ID(s) of Target Chain>


> <UniProt (TrEMBL) Alternative ID(s) of Target Chain>


$$$$

  SciTegic09261414532D

 32 35  0  0  0  0            999 V2000
    8.1893   -5.2576    0.0000 S   0  0
    7.7640   -5.9554    0.0000 O   0  0
    8.5809   -5.9749    0.0000 O   0  0
    5.3612   -5.1893    0.0000 C   0  0
    3.9251   -5.9743    0.0000 C   0  0
    3.9443   -5.1562    0.0000 C   0  0
    4.6623   -4.7637    0.0000 C   0  0
    5.3421   -6.0074    0.0000 C   0  0
    4.6241   -6.3999    0.0000 N   0  0
    3.2071   -6.3668    0.0000 N   0  0
    3.2453   -4.7306    0.0000 O   0  0
    3.2647   -3.9123    0.0000 C   0  0  2  0  0  0
    4.0021   -3.5582    0.0000 C   0  0
    2.5620   -3.4930    0.0000 C   0  0
    1.8475   -3.8919    0.0000 C   0  0
    1.1448   -3.4727    0.0000 C   0  0
    1.1566   -2.6544    0.0000 C   0  0
    1.8710   -2.2555    0.0000 C   0  0
    2.5737   -2.6748    0.0000 C   0  0
    0.4303   -3.8716    0.0000 F   0  0
    3.2872   -2.2764    0.0000 N   0  0
    4.0261   -2.6204    0.0000 N   0  0
    4.5816   -2.0210    0.0000 C   0  0
    4.1831   -1.3074    0.0000 C   0  0
    3.3815   -1.4660    0.0000 N   0  0
    6.0768   -4.7968    0.0000 C   0  0
    6.7750   -5.2235    0.0000 C   0  0
    7.4916   -4.8322    0.0000 C   0  0
    7.5111   -4.0144    0.0000 C   0  0
    6.8082   -3.5894    0.0000 C   0  0
    6.0945   -3.9831    0.0000 C   0  0
    8.9066   -4.8660    0.0000 C   0  0
  2  1  2  0
  1  3  2  0
  5  6  1  0
  6  7  2  0
  7  4  1  0
  4  8  2  0
  8  9  1  0
  5  9  2  0
  5 10  1  0
 12 13  1  1
 11 12  1  0
 14 15  1  0
 15 16  2  0
 16 17  1  0
 17 18  2  0
 18 19  1  0
 14 19  2  0
 16 20  1  0
 12 14  1  0
  6 11  1  0
 19 21  1  0
 21 22  1  0
 22 23  2  0
 23 24  1  0
 24 25  2  0
 25 21  1  0
 26 27  2  0
 27 28  1  0
 28 29  2  0
 29 30  1  0
 30 31  2  0
 31 26  1  0
  4 26  1  0
 28  1  1  0
  1 32  1  0
M  END
> <From>
www.bindingDB.org

> <BindingDB Reactant_set_id>
50103571

> <Ligand InChI>
InChI=1S/C22H20FN5O3S/c1-14(19-12-17(23)6-7-20(19)28-26-8-9-27-28)31-21-11-16(13-25-22(21)24)15-4-3-5-18(10-15)32(2,29)30/h3-14H,1-2H3,(H2,24,25)/t14-/m1/s1

> <Ligand InChI Key>
BCKZYTLSGWMFTG-CQSZACIVSA-N

> <BindingDB MonomerID>
50018823

> <BindingDB Ligand Name>
CHEMBL3286813

> <Target Name>
ALK tyrosine kinase receptor

> <Target Source Organism According to Curator or DataSource>
Homo sapiens

> <Ki (nM)>
 1.4

> <IC50 (nM)>


> <Kd (nM)>


> <EC50 (nM)>


> <kon (M-1-s-1)>


> <koff (s-1)>


> <pH>


> <Temp C>


> <Curation/DataSource>
ChEMBL

> <Article DOI>
10.1021/jm500261q

> <BindingDB Entry DOI>
10.7270/Q2K35W68

> <PMID>
24819116

> <PubChem AID>


> <Patent Number>


> <Authors>
Johnson, TW; Richardson, PF; Bailey, S; Brooun, A; Burke, BJ; Collins, MR; Cui, JJ; Deal, JG; Deng, YL; Dinh, D; Engstrom, LD; He, M; Hoffman, J; Hoffman, RL; Huang, Q; Kania, RS; Kath, JC; Lam, H; Lam, JL; Le, PT; Lingardo, L; Liu, W; McTigue, M; Palmer, CL; Sach, NW; Smeal, T; Smith, GL; Stewart, AE; Timofeevski, S; Zhu, H; Zhu, J; Zou, HY; Edwards, MP

> <Date of publication>
6/12/2014

> <Date in BindingDB>
2/11/2015

> <Institution>
Pfizer Inc

> <Link to Ligand in BindingDB>
http://www.bindingdb.org/bind/chemsearch/marvin/MolStructure.jsp?monomerid=50018823

> <Link to Ligand-Target Pair in BindingDB>
http://www.bindingdb.org/jsp/dbsearch/PrimarySearch_ki.jsp?energyterm=kJ/mole&tag=pol&polymerid=5809&target=ALK+tyrosine+kinase+receptor&column=ki&startPg=0&Increment=50&submit=Search

> <Link to Ligand-Target Pair in BindingDB>
http://www.bindingdb.org/jsp/dbsearch/PrimarySearch_ki.jsp?energyterm=kJ/mole&tag=r21&monomerid=50018823&enzyme=ALK+tyrosine+kinase+receptor&column=ki&startPg=0&Increment=50&submit=Search

> <Ligand HET ID in PDB>


> <PDB ID(s) for Ligand-Target Complex>


> <PubChem CID of Ligand>
73819543

> <PubChem SID of Ligand>
103929876

> <ChEBI ID of Ligand>


> <ChEMBL ID of Ligand>
CHEMBL3286813

> <DrugBank ID of Ligand>


> <IUPHAR_GRAC ID of Ligand>


> <KEGG ID of Ligand>


> <ZINC ID of Ligand>
ZINC34216072

> <Number of Protein Chains in Target (bigger than 1 implies a multichain complex)>
1

> <BindingDB Target Chain Sequence>
MGAIGLLWLLPLLLSTAAVGSGMGTGQRAGSPAAGPPLQPREPLSYSRLQRKSLAVDFVVPSLFRVYARDLLLPPSSSELKAGRPEARGSLALDCAPLLRLLGPAPGVSWTAGSPAPAEARTLSRVLKGGSVRKLRRAKQLVLELGEEAILEGCVGPPGEAAVGLLQFNLSELFSWWIRQGEGRLRIRLMPEKKASEVGREGRLSAAIRASQPRLLFQIFGTGHSSLESPTNMPSPSPDYFTWNLTWIMKDSFPFLSHRSRYGLECSFDFPCELEYSPPLHDLRNQSWSWRRIPSEEASQMDLLDGPGAERSKEMPRGSFLLLNTSADSKHTILSPWMRSSSEHCTLAVSVHRHLQPSGRYIAQLLPHNEAAREILLMPTPGKHGWTVLQGRIGRPDNPFRVALEYISSGNRSLSAVDFFALKNCSEGTSPGSKMALQSSFTCWNGTVLQLGQACDFHQDCAQGEDESQMCRKLPVGFYCNFEDGFCGWTQGTLSPHTPQWQVRTLKDARFQDHQDHALLLSTTDVPASESATVTSATFPAPIKSSPCELRMSWLIRGVLRGNVSLVLVENKTGKEQGRMVWHVAAYEGLSLWQWMVLPLLDVSDRFWLQMVAWWGQGSRAIVAFDNISISLDCYLTISGEDKILQNTAPKSRNLFERNPNKELKPGENSPRQTPIFDPTVHWLFTTCGASGPHGPTQAQCNNAYQNSNLSVEVGSEGPLKGIQIWKVPATDTYSISGYGAAGGKGGKNTMMRSHGVSVLGIFNLEKDDMLYILVGQQGEDACPSTNQLIQKVCIGENNVIEEEIRVNRSVHEWAGGGGGGGGATYVFKMKDGVPVPLIIAAGGGGRAYGAKTDTFHPERLENNSSVLGLNGNSGAAGGGGGWNDNTSLLWAGKSLQEGATGGHSCPQAMKKWGWETRGGFGGGGGGCSSGGGGGGYIGGNAASNNDPEMDGEDGVSFISPLGILYTPALKVMEGHGEVNIKHYLNCSHCEVDECHMDPESHKVICFCDHGTVLAEDGVSCIVSPTPEPHLPLSLILSVVTSALVAALVLAFSGIMIVYRRKHQELQAMQMELQSPEYKLSKLRTSTIMTDYNPNYCFAGKTSSISDLKEVPRKNITLIRGLGHGAFGEVYEGQVSGMPNDPSPLQVAVKTLPEVCSEQDELDFLMEALIISKFNHQNIVRCIGVSLQSLPRFILLELMAGGDLKSFLRETRPRPSQPSSLAMLDLLHVARDIACGCQYLEENHFIHRDIAARNCLLTCPGPGRVAKIGDFGMARDIYRASYYRKGGCAMLPVKWMPPEAFMEGIFTSKTDTWSFGVLLWEIFSLGYMPYPSKSNQEVLEFVTSGGRMDPPKNCPGPVYRIMTQCWQHQPEDRPNFAIILERIEYCTQDPDVINTALPIEYGPLVEEEEKVPVRPKDPEGVPPLLVSQQAKREEERSPAAPPPLPTTSSGKAAKKPTAAEISVRVPRGPAVEGGHVNMAFSQSNPPSELHKVHGSRNKPTSLWNPTYGSWFTEKPTKKNNPIAKKEPHDRGNLGLEGSCTVPPNVATGRLPGASLLLEPSSLTANMKEVPLFRLRHFPCGNVNYGYQQQGLPLEAATAPGAGHYEDTILKSKNSMNQPGP

> <PDB ID(s) of Target Chain>
2XB7,2XBA,3AOX,5FTO,5FTQ,6E0R,6EBW,6EDL,6MX8,7JY4,7JYR,7JYS,7JYT,7LS0,7MZW,7MZY,7N00,7NX3,7NX4,8ARJ

> <UniProt (SwissProt) Recommended Name of Target Chain>
ALK tyrosine kinase receptor

> <UniProt (SwissProt) Entry Name of Target Chain>
ALK_HUMAN

> <UniProt (SwissProt) Primary ID of Target Chain>
Q9UM73

> <UniProt (SwissProt) Secondary ID(s) of Target Chain>
A6P4T4 A6P4V4 Q4ZFX9 Q53QQ6 Q53RZ4 Q59FI3 Q9Y4K6

> <UniProt (SwissProt) Alternative ID(s) of Target Chain>


> <UniProt (TrEMBL) Submitted Name of Target Chain>


> <UniProt (TrEMBL) Entry Name of Target Chain>


> <UniProt (TrEMBL) Primary ID of Target Chain>


> <UniProt (TrEMBL) Secondary ID(s) of Target Chain>


> <UniProt (TrEMBL) Alternative ID(s) of Target Chain>


$$$$

  SciTegic09261414532D

 26 29  0  0  0  0            999 V2000
    5.3241   -4.5702    0.0000 C   0  0
    3.8880   -5.3552    0.0000 C   0  0
    3.9071   -4.5371    0.0000 C   0  0
    4.6251   -4.1446    0.0000 C   0  0
    5.3049   -5.3883    0.0000 C   0  0
    4.5869   -5.7808    0.0000 N   0  0
    3.1700   -5.7477    0.0000 N   0  0
    3.2082   -4.1115    0.0000 O   0  0
    3.2276   -3.2932    0.0000 C   0  0
    2.5248   -2.8739    0.0000 C   0  0
    1.8104   -3.2728    0.0000 C   0  0
    1.1077   -2.8536    0.0000 C   0  0
    1.1194   -2.0354    0.0000 C   0  0
    1.8339   -1.6364    0.0000 C   0  0
    2.5366   -2.0557    0.0000 C   0  0
    0.3932   -3.2525    0.0000 F   0  0
    6.0578   -3.3611    0.0000 C   0  0
    6.0396   -4.1777    0.0000 C   0  0
    6.8107   -4.4473    0.0000 C   0  0
    7.3054   -3.7973    0.0000 N   0  0
    6.8400   -3.1260    0.0000 N   0  0
    3.2501   -1.6573    0.0000 O   0  0
    3.9519   -2.0760    0.0000 C   0  0
    4.6654   -1.6776    0.0000 C   0  0
    7.0465   -5.2289    0.0000 C   0  0
    7.2817   -6.0116    0.0000 N   0  0
  2  3  1  0
  3  4  2  0
  4  1  1  0
  1  5  2  0
  5  6  1  0
  2  6  2  0
  2  7  1  0
  8  9  1  0
 10 11  1  0
 11 12  2  0
 12 13  1  0
 13 14  2  0
 14 15  1  0
 10 15  2  0
 12 16  1  0
  9 10  1  0
  3  8  1  0
  1 18  1  0
 17 18  1  0
 18 19  2  0
 19 20  1  0
 20 21  1  0
 21 17  2  0
 15 22  1  0
 22 23  1  0
 23 24  1  0
 24 17  1  0
 25 26  3  0
 19 25  1  0
M  END
> <From>
www.bindingDB.org

> <BindingDB Reactant_set_id>
50103572

> <Ligand InChI>
InChI=1S/C18H14FN5O2/c19-12-1-2-15-11(5-12)9-26-16-6-10(8-22-18(16)21)17-13(3-4-25-15)23-24-14(17)7-20/h1-2,5-6,8H,3-4,9H2,(H2,21,22)(H,23,24)

> <Ligand InChI Key>
JPFKGTKMTHTBAD-UHFFFAOYSA-N

> <BindingDB MonomerID>
50018824

> <BindingDB Ligand Name>
CHEMBL3286814

> <Target Name>
ALK tyrosine kinase receptor

> <Target Source Organism According to Curator or DataSource>
Homo sapiens

> <Ki (nM)>
 1.6

> <IC50 (nM)>


> <Kd (nM)>


> <EC50 (nM)>


> <kon (M-1-s-1)>


> <koff (s-1)>


> <pH>


> <Temp C>


> <Curation/DataSource>
ChEMBL

> <Article DOI>
10.1021/jm500261q

> <BindingDB Entry DOI>
10.7270/Q2K35W68

> <PMID>
24819116

> <PubChem AID>


> <Patent Number>


> <Authors>
Johnson, TW; Richardson, PF; Bailey, S; Brooun, A; Burke, BJ; Collins, MR; Cui, JJ; Deal, JG; Deng, YL; Dinh, D; Engstrom, LD; He, M; Hoffman, J; Hoffman, RL; Huang, Q; Kania, RS; Kath, JC; Lam, H; Lam, JL; Le, PT; Lingardo, L; Liu, W; McTigue, M; Palmer, CL; Sach, NW; Smeal, T; Smith, GL; Stewart, AE; Timofeevski, S; Zhu, H; Zhu, J; Zou, HY; Edwards, MP

> <Date of publication>
6/12/2014

> <Date in BindingDB>
2/11/2015

> <Institution>
Pfizer Inc

> <Link to Ligand in BindingDB>
http://www.bindingdb.org/bind/chemsearch/marvin/MolStructure.jsp?monomerid=50018824

> <Link to Ligand-Target Pair in BindingDB>
http://www.bindingdb.org/jsp/dbsearch/PrimarySearch_ki.jsp?energyterm=kJ/mole&tag=pol&polymerid=5809&target=ALK+tyrosine+kinase+receptor&column=ki&startPg=0&Increment=50&submit=Search

> <Link to Ligand-Target Pair in BindingDB>
http://www.bindingdb.org/jsp/dbsearch/PrimarySearch_ki.jsp?energyterm=kJ/mole&tag=r21&monomerid=50018824&enzyme=ALK+tyrosine+kinase+receptor&column=ki&startPg=0&Increment=50&submit=Search

> <Ligand HET ID in PDB>


> <PDB ID(s) for Ligand-Target Complex>


> <PubChem CID of Ligand>
71732095

> <PubChem SID of Ligand>
103929877

> <ChEBI ID of Ligand>


> <ChEMBL ID of Ligand>
CHEMBL3286814

> <DrugBank ID of Ligand>


> <IUPHAR_GRAC ID of Ligand>


> <KEGG ID of Ligand>


> <ZINC ID of Ligand>
ZINC33891530

> <Number of Protein Chains in Target (bigger than 1 implies a multichain complex)>
1

> <BindingDB Target Chain Sequence>
MGAIGLLWLLPLLLSTAAVGSGMGTGQRAGSPAAGPPLQPREPLSYSRLQRKSLAVDFVVPSLFRVYARDLLLPPSSSELKAGRPEARGSLALDCAPLLRLLGPAPGVSWTAGSPAPAEARTLSRVLKGGSVRKLRRAKQLVLELGEEAILEGCVGPPGEAAVGLLQFNLSELFSWWIRQGEGRLRIRLMPEKKASEVGREGRLSAAIRASQPRLLFQIFGTGHSSLESPTNMPSPSPDYFTWNLTWIMKDSFPFLSHRSRYGLECSFDFPCELEYSPPLHDLRNQSWSWRRIPSEEASQMDLLDGPGAERSKEMPRGSFLLLNTSADSKHTILSPWMRSSSEHCTLAVSVHRHLQPSGRYIAQLLPHNEAAREILLMPTPGKHGWTVLQGRIGRPDNPFRVALEYISSGNRSLSAVDFFALKNCSEGTSPGSKMALQSSFTCWNGTVLQLGQACDFHQDCAQGEDESQMCRKLPVGFYCNFEDGFCGWTQGTLSPHTPQWQVRTLKDARFQDHQDHALLLSTTDVPASESATVTSATFPAPIKSSPCELRMSWLIRGVLRGNVSLVLVENKTGKEQGRMVWHVAAYEGLSLWQWMVLPLLDVSDRFWLQMVAWWGQGSRAIVAFDNISISLDCYLTISGEDKILQNTAPKSRNLFERNPNKELKPGENSPRQTPIFDPTVHWLFTTCGASGPHGPTQAQCNNAYQNSNLSVEVGSEGPLKGIQIWKVPATDTYSISGYGAAGGKGGKNTMMRSHGVSVLGIFNLEKDDMLYILVGQQGEDACPSTNQLIQKVCIGENNVIEEEIRVNRSVHEWAGGGGGGGGATYVFKMKDGVPVPLIIAAGGGGRAYGAKTDTFHPERLENNSSVLGLNGNSGAAGGGGGWNDNTSLLWAGKSLQEGATGGHSCPQAMKKWGWETRGGFGGGGGGCSSGGGGGGYIGGNAASNNDPEMDGEDGVSFISPLGILYTPALKVMEGHGEVNIKHYLNCSHCEVDECHMDPESHKVICFCDHGTVLAEDGVSCIVSPTPEPHLPLSLILSVVTSALVAALVLAFSGIMIVYRRKHQELQAMQMELQSPEYKLSKLRTSTIMTDYNPNYCFAGKTSSISDLKEVPRKNITLIRGLGHGAFGEVYEGQVSGMPNDPSPLQVAVKTLPEVCSEQDELDFLMEALIISKFNHQNIVRCIGVSLQSLPRFILLELMAGGDLKSFLRETRPRPSQPSSLAMLDLLHVARDIACGCQYLEENHFIHRDIAARNCLLTCPGPGRVAKIGDFGMARDIYRASYYRKGGCAMLPVKWMPPEAFMEGIFTSKTDTWSFGVLLWEIFSLGYMPYPSKSNQEVLEFVTSGGRMDPPKNCPGPVYRIMTQCWQHQPEDRPNFAIILERIEYCTQDPDVINTALPIEYGPLVEEEEKVPVRPKDPEGVPPLLVSQQAKREEERSPAAPPPLPTTSSGKAAKKPTAAEISVRVPRGPAVEGGHVNMAFSQSNPPSELHKVHGSRNKPTSLWNPTYGSWFTEKPTKKNNPIAKKEPHDRGNLGLEGSCTVPPNVATGRLPGASLLLEPSSLTANMKEVPLFRLRHFPCGNVNYGYQQQGLPLEAATAPGAGHYEDTILKSKNSMNQPGP

> <PDB ID(s) of Target Chain>
2XB7,2XBA,3AOX,5FTO,5FTQ,6E0R,6EBW,6EDL,6MX8,7JY4,7JYR,7JYS,7JYT,7LS0,7MZW,7MZY,7N00,7NX3,7NX4,8ARJ

> <UniProt (SwissProt) Recommended Name of Target Chain>
ALK tyrosine kinase receptor

> <UniProt (SwissProt) Entry Name of Target Chain>
ALK_HUMAN

> <UniProt (SwissProt) Primary ID of Target Chain>
Q9UM73

> <UniProt (SwissProt) Secondary ID(s) of Target Chain>
A6P4T4 A6P4V4 Q4ZFX9 Q53QQ6 Q53RZ4 Q59FI3 Q9Y4K6

> <UniProt (SwissProt) Alternative ID(s) of Target Chain>


> <UniProt (TrEMBL) Submitted Name of Target Chain>


> <UniProt (TrEMBL) Entry Name of Target Chain>


> <UniProt (TrEMBL) Primary ID of Target Chain>


> <UniProt (TrEMBL) Secondary ID(s) of Target Chain>


> <UniProt (TrEMBL) Alternative ID(s) of Target Chain>


$$$$

  SciTegic09261414532D

 28 31  0  0  0  0            999 V2000
    4.7766   -4.0166    0.0000 O   0  0
    4.0760   -4.4003    0.0000 C   0  0
    3.3904   -3.9835    0.0000 C   0  0
    3.4142   -3.1829    0.0000 C   0  0
    2.7295   -2.7662    0.0000 C   0  0
    2.0279   -3.1499    0.0000 C   0  0
    2.0114   -3.9547    0.0000 C   0  0
    2.6968   -4.3677    0.0000 C   0  0
    4.1201   -2.8014    0.0000 C   0  0
    1.3081   -4.3409    0.0000 F   0  0
    7.5693   -3.2770    0.0000 C   0  0
    5.4438   -4.4326    0.0000 C   0  0
    6.8511   -4.4671    0.0000 C   0  0
    5.4440   -5.2355    0.0000 C   0  0
    6.1687   -4.0497    0.0000 C   0  0
    6.8320   -5.2686    0.0000 C   0  0
    6.1305   -5.6528    0.0000 N   0  0
    4.7383   -5.6197    0.0000 N   0  0
    7.5543   -4.0828    0.0000 C   0  0
    8.3089   -4.3441    0.0000 C   0  0
    8.7954   -3.7065    0.0000 N   0  0
    8.3382   -3.0517    0.0000 N   0  0
    8.5405   -5.1092    0.0000 C   0  0
    4.8160   -3.2297    0.0000 O   0  0
    4.1431   -1.9845    0.0000 N   0  0
    4.8620   -1.5960    0.0000 C   0  0
    3.4472   -1.5562    0.0000 C   0  0
    8.6093   -2.2808    0.0000 C   0  0
 12  1  1  0
  1  2  1  0
  2  3  1  0
  3  4  2  0
  4  5  1  0
  5  6  2  0
  6  7  1  0
  7  8  2  0
  8  3  1  0
  4  9  1  0
  7 10  1  0
 14 12  1  0
 12 15  2  0
 15 13  1  0
 13 16  2  0
 16 17  1  0
 14 17  2  0
 14 18  1  0
 13 19  1  0
 11 19  2  0
 19 20  1  0
 20 21  2  0
 21 22  1  0
 22 11  1  0
 20 23  1  0
  9 24  2  0
  9 25  1  0
 25 26  1  0
 25 27  1  0
 26 11  1  0
 22 28  1  0
M  END
> <From>
www.bindingDB.org

> <BindingDB Reactant_set_id>
50103657

> <Ligand InChI>
InChI=1S/C20H20FN5O2/c1-11-18-12-7-17(19(22)23-8-12)28-10-13-6-14(21)4-5-15(13)20(27)25(2)9-16(18)26(3)24-11/h4-8H,9-10H2,1-3H3,(H2,22,23)

> <Ligand InChI Key>
KTZLYUTXTQABMN-UHFFFAOYSA-N

> <BindingDB MonomerID>
50018832

> <BindingDB Ligand Name>
CHEMBL3286822

> <Target Name>
ALK tyrosine kinase receptor

> <Target Source Organism According to Curator or DataSource>
Homo sapiens

> <Ki (nM)>
 1.9

> <IC50 (nM)>


> <Kd (nM)>


> <EC50 (nM)>


> <kon (M-1-s-1)>


> <koff (s-1)>


> <pH>


> <Temp C>


> <Curation/DataSource>
ChEMBL

> <Article DOI>
10.1021/jm500261q

> <BindingDB Entry DOI>
10.7270/Q2K35W68

> <PMID>
24819116

> <PubChem AID>


> <Patent Number>


> <Authors>
Johnson, TW; Richardson, PF; Bailey, S; Brooun, A; Burke, BJ; Collins, MR; Cui, JJ; Deal, JG; Deng, YL; Dinh, D; Engstrom, LD; He, M; Hoffman, J; Hoffman, RL; Huang, Q; Kania, RS; Kath, JC; Lam, H; Lam, JL; Le, PT; Lingardo, L; Liu, W; McTigue, M; Palmer, CL; Sach, NW; Smeal, T; Smith, GL; Stewart, AE; Timofeevski, S; Zhu, H; Zhu, J; Zou, HY; Edwards, MP

> <Date of publication>
6/12/2014

> <Date in BindingDB>
2/11/2015

> <Institution>
Pfizer Inc

> <Link to Ligand in BindingDB>
http://www.bindingdb.org/bind/chemsearch/marvin/MolStructure.jsp?monomerid=50018832

> <Link to Ligand-Target Pair in BindingDB>
http://www.bindingdb.org/jsp/dbsearch/PrimarySearch_ki.jsp?energyterm=kJ/mole&tag=pol&polymerid=5809&target=ALK+tyrosine+kinase+receptor&column=ki&startPg=0&Increment=50&submit=Search

> <Link to Ligand-Target Pair in BindingDB>
http://www.bindingdb.org/jsp/dbsearch/PrimarySearch_ki.jsp?energyterm=kJ/mole&tag=r21&monomerid=50018832&enzyme=ALK+tyrosine+kinase+receptor&column=ki&startPg=0&Increment=50&submit=Search

> <Ligand HET ID in PDB>


> <PDB ID(s) for Ligand-Target Complex>


> <PubChem CID of Ligand>
71731827

> <PubChem SID of Ligand>
103929885

> <ChEBI ID of Ligand>


> <ChEMBL ID of Ligand>
CHEMBL3286822

> <DrugBank ID of Ligand>


> <IUPHAR_GRAC ID of Ligand>


> <KEGG ID of Ligand>


> <ZINC ID of Ligand>
ZINC34216070

> <Number of Protein Chains in Target (bigger than 1 implies a multichain complex)>
1

> <BindingDB Target Chain Sequence>
MGAIGLLWLLPLLLSTAAVGSGMGTGQRAGSPAAGPPLQPREPLSYSRLQRKSLAVDFVVPSLFRVYARDLLLPPSSSELKAGRPEARGSLALDCAPLLRLLGPAPGVSWTAGSPAPAEARTLSRVLKGGSVRKLRRAKQLVLELGEEAILEGCVGPPGEAAVGLLQFNLSELFSWWIRQGEGRLRIRLMPEKKASEVGREGRLSAAIRASQPRLLFQIFGTGHSSLESPTNMPSPSPDYFTWNLTWIMKDSFPFLSHRSRYGLECSFDFPCELEYSPPLHDLRNQSWSWRRIPSEEASQMDLLDGPGAERSKEMPRGSFLLLNTSADSKHTILSPWMRSSSEHCTLAVSVHRHLQPSGRYIAQLLPHNEAAREILLMPTPGKHGWTVLQGRIGRPDNPFRVALEYISSGNRSLSAVDFFALKNCSEGTSPGSKMALQSSFTCWNGTVLQLGQACDFHQDCAQGEDESQMCRKLPVGFYCNFEDGFCGWTQGTLSPHTPQWQVRTLKDARFQDHQDHALLLSTTDVPASESATVTSATFPAPIKSSPCELRMSWLIRGVLRGNVSLVLVENKTGKEQGRMVWHVAAYEGLSLWQWMVLPLLDVSDRFWLQMVAWWGQGSRAIVAFDNISISLDCYLTISGEDKILQNTAPKSRNLFERNPNKELKPGENSPRQTPIFDPTVHWLFTTCGASGPHGPTQAQCNNAYQNSNLSVEVGSEGPLKGIQIWKVPATDTYSISGYGAAGGKGGKNTMMRSHGVSVLGIFNLEKDDMLYILVGQQGEDACPSTNQLIQKVCIGENNVIEEEIRVNRSVHEWAGGGGGGGGATYVFKMKDGVPVPLIIAAGGGGRAYGAKTDTFHPERLENNSSVLGLNGNSGAAGGGGGWNDNTSLLWAGKSLQEGATGGHSCPQAMKKWGWETRGGFGGGGGGCSSGGGGGGYIGGNAASNNDPEMDGEDGVSFISPLGILYTPALKVMEGHGEVNIKHYLNCSHCEVDECHMDPESHKVICFCDHGTVLAEDGVSCIVSPTPEPHLPLSLILSVVTSALVAALVLAFSGIMIVYRRKHQELQAMQMELQSPEYKLSKLRTSTIMTDYNPNYCFAGKTSSISDLKEVPRKNITLIRGLGHGAFGEVYEGQVSGMPNDPSPLQVAVKTLPEVCSEQDELDFLMEALIISKFNHQNIVRCIGVSLQSLPRFILLELMAGGDLKSFLRETRPRPSQPSSLAMLDLLHVARDIACGCQYLEENHFIHRDIAARNCLLTCPGPGRVAKIGDFGMARDIYRASYYRKGGCAMLPVKWMPPEAFMEGIFTSKTDTWSFGVLLWEIFSLGYMPYPSKSNQEVLEFVTSGGRMDPPKNCPGPVYRIMTQCWQHQPEDRPNFAIILERIEYCTQDPDVINTALPIEYGPLVEEEEKVPVRPKDPEGVPPLLVSQQAKREEERSPAAPPPLPTTSSGKAAKKPTAAEISVRVPRGPAVEGGHVNMAFSQSNPPSELHKVHGSRNKPTSLWNPTYGSWFTEKPTKKNNPIAKKEPHDRGNLGLEGSCTVPPNVATGRLPGASLLLEPSSLTANMKEVPLFRLRHFPCGNVNYGYQQQGLPLEAATAPGAGHYEDTILKSKNSMNQPGP

> <PDB ID(s) of Target Chain>
2XB7,2XBA,3AOX,5FTO,5FTQ,6E0R,6EBW,6EDL,6MX8,7JY4,7JYR,7JYS,7JYT,7LS0,7MZW,7MZY,7N00,7NX3,7NX4,8ARJ

> <UniProt (SwissProt) Recommended Name of Target Chain>
ALK tyrosine kinase receptor

> <UniProt (SwissProt) Entry Name of Target Chain>
ALK_HUMAN

> <UniProt (SwissProt) Primary ID of Target Chain>
Q9UM73

> <UniProt (SwissProt) Secondary ID(s) of Target Chain>
A6P4T4 A6P4V4 Q4ZFX9 Q53QQ6 Q53RZ4 Q59FI3 Q9Y4K6

> <UniProt (SwissProt) Alternative ID(s) of Target Chain>


> <UniProt (TrEMBL) Submitted Name of Target Chain>


> <UniProt (TrEMBL) Entry Name of Target Chain>


> <UniProt (TrEMBL) Primary ID of Target Chain>


> <UniProt (TrEMBL) Secondary ID(s) of Target Chain>


> <UniProt (TrEMBL) Alternative ID(s) of Target Chain>


$$$$

  SciTegic09261414532D

 32 36  0  0  0  0            999 V2000
   15.3310   -4.6775    0.0000 O   0  0
   14.6101   -5.0724    0.0000 C   0  0  1  0  0  0
   13.9045   -4.6434    0.0000 C   0  0
   13.9290   -3.8195    0.0000 C   0  0
   13.2242   -3.3906    0.0000 C   0  0
   12.5023   -3.7855    0.0000 C   0  0
   12.4852   -4.6138    0.0000 C   0  0
   13.1906   -5.0388    0.0000 C   0  0
   14.6555   -3.4268    0.0000 C   0  0
   11.7614   -5.0112    0.0000 F   0  0
   18.2053   -3.9163    0.0000 C   0  0
   16.0178   -5.1056    0.0000 C   0  0
   17.4661   -5.1410    0.0000 C   0  0
   16.0179   -5.9319    0.0000 C   0  0
   16.7638   -4.7115    0.0000 C   0  0
   17.4465   -5.9660    0.0000 C   0  0
   16.7245   -6.3614    0.0000 N   0  0
   15.2917   -6.3273    0.0000 N   0  0
   18.1899   -4.7456    0.0000 C   0  0
   18.9966   -3.6844    0.0000 N   0  0
   14.1913   -5.7853    0.0000 C   0  0
   15.3717   -3.8676    0.0000 O   0  0
   14.6792   -2.5861    0.0000 N   0  0
   15.4190   -2.1863    0.0000 C   0  0
   13.9628   -2.1453    0.0000 C   0  0
   19.4671   -4.3583    0.0000 C   0  0
   18.9663   -5.0093    0.0000 N   0  0
   19.2798   -5.7663    0.0000 C   0  0
   20.0938   -5.8737    0.0000 C   0  0
   20.5934   -5.2178    0.0000 C   0  0
   20.2771   -4.4633    0.0000 N   0  0
   20.4170   -6.6501    0.0000 C   0  0
 12  1  1  0
  1  2  1  0
  2  3  1  0
  3  4  2  0
  4  5  1  0
  5  6  2  0
  6  7  1  0
  7  8  2  0
  8  3  1  0
  4  9  1  0
  7 10  1  0
 14 12  1  0
 12 15  2  0
 15 13  1  0
 13 16  2  0
 16 17  1  0
 14 17  2  0
 14 18  1  0
 13 19  1  0
 11 19  2  0
 19 27  1  0
 26 20  2  0
 20 11  1  0
  2 21  1  6
  9 22  2  0
  9 23  1  0
 23 24  1  0
 23 25  1  0
 24 11  1  0
 26 27  1  0
 27 28  1  0
 28 29  2  0
 29 30  1  0
 30 31  2  0
 31 26  1  0
 29 32  1  0
M  END
> <From>
www.bindingDB.org

> <BindingDB Reactant_set_id>
50103676

> <Ligand InChI>
InChI=1S/C23H21FN6O2/c1-12-8-27-23-28-18-11-29(3)22(31)16-5-4-15(24)7-17(16)13(2)32-19-6-14(9-26-21(19)25)20(18)30(23)10-12/h4-10,13H,11H2,1-3H3,(H2,25,26)/t13-/m1/s1

> <Ligand InChI Key>
LOLWMDGFTABZFN-CYBMUJFWSA-N

> <BindingDB MonomerID>
50018841

> <BindingDB Ligand Name>
CHEMBL3286831

> <Target Name>
ALK tyrosine kinase receptor

> <Target Source Organism According to Curator or DataSource>
Homo sapiens

> <Ki (nM)>
 2.0

> <IC50 (nM)>


> <Kd (nM)>


> <EC50 (nM)>


> <kon (M-1-s-1)>


> <koff (s-1)>


> <pH>


> <Temp C>


> <Curation/DataSource>
ChEMBL

> <Article DOI>
10.1021/jm500261q

> <BindingDB Entry DOI>
10.7270/Q2K35W68

> <PMID>
24819116

> <PubChem AID>


> <Patent Number>


> <Authors>
Johnson, TW; Richardson, PF; Bailey, S; Brooun, A; Burke, BJ; Collins, MR; Cui, JJ; Deal, JG; Deng, YL; Dinh, D; Engstrom, LD; He, M; Hoffman, J; Hoffman, RL; Huang, Q; Kania, RS; Kath, JC; Lam, H; Lam, JL; Le, PT; Lingardo, L; Liu, W; McTigue, M; Palmer, CL; Sach, NW; Smeal, T; Smith, GL; Stewart, AE; Timofeevski, S; Zhu, H; Zhu, J; Zou, HY; Edwards, MP

> <Date of publication>
6/12/2014

> <Date in BindingDB>
2/11/2015

> <Institution>
Pfizer Inc

> <Link to Ligand in BindingDB>
http://www.bindingdb.org/bind/chemsearch/marvin/MolStructure.jsp?monomerid=50018841

> <Link to Ligand-Target Pair in BindingDB>
http://www.bindingdb.org/jsp/dbsearch/PrimarySearch_ki.jsp?energyterm=kJ/mole&tag=pol&polymerid=5809&target=ALK+tyrosine+kinase+receptor&column=ki&startPg=0&Increment=50&submit=Search

> <Link to Ligand-Target Pair in BindingDB>
http://www.bindingdb.org/jsp/dbsearch/PrimarySearch_ki.jsp?energyterm=kJ/mole&tag=r21&monomerid=50018841&enzyme=ALK+tyrosine+kinase+receptor&column=ki&startPg=0&Increment=50&submit=Search

> <Ligand HET ID in PDB>


> <PDB ID(s) for Ligand-Target Complex>


> <PubChem CID of Ligand>
89808125

> <PubChem SID of Ligand>
103929894

> <ChEBI ID of Ligand>


> <ChEMBL ID of Ligand>
CHEMBL3286831

> <DrugBank ID of Ligand>


> <IUPHAR_GRAC ID of Ligand>


> <KEGG ID of Ligand>


> <ZINC ID of Ligand>
ZINC36080038

> <Number of Protein Chains in Target (bigger than 1 implies a multichain complex)>
1

> <BindingDB Target Chain Sequence>
MGAIGLLWLLPLLLSTAAVGSGMGTGQRAGSPAAGPPLQPREPLSYSRLQRKSLAVDFVVPSLFRVYARDLLLPPSSSELKAGRPEARGSLALDCAPLLRLLGPAPGVSWTAGSPAPAEARTLSRVLKGGSVRKLRRAKQLVLELGEEAILEGCVGPPGEAAVGLLQFNLSELFSWWIRQGEGRLRIRLMPEKKASEVGREGRLSAAIRASQPRLLFQIFGTGHSSLESPTNMPSPSPDYFTWNLTWIMKDSFPFLSHRSRYGLECSFDFPCELEYSPPLHDLRNQSWSWRRIPSEEASQMDLLDGPGAERSKEMPRGSFLLLNTSADSKHTILSPWMRSSSEHCTLAVSVHRHLQPSGRYIAQLLPHNEAAREILLMPTPGKHGWTVLQGRIGRPDNPFRVALEYISSGNRSLSAVDFFALKNCSEGTSPGSKMALQSSFTCWNGTVLQLGQACDFHQDCAQGEDESQMCRKLPVGFYCNFEDGFCGWTQGTLSPHTPQWQVRTLKDARFQDHQDHALLLSTTDVPASESATVTSATFPAPIKSSPCELRMSWLIRGVLRGNVSLVLVENKTGKEQGRMVWHVAAYEGLSLWQWMVLPLLDVSDRFWLQMVAWWGQGSRAIVAFDNISISLDCYLTISGEDKILQNTAPKSRNLFERNPNKELKPGENSPRQTPIFDPTVHWLFTTCGASGPHGPTQAQCNNAYQNSNLSVEVGSEGPLKGIQIWKVPATDTYSISGYGAAGGKGGKNTMMRSHGVSVLGIFNLEKDDMLYILVGQQGEDACPSTNQLIQKVCIGENNVIEEEIRVNRSVHEWAGGGGGGGGATYVFKMKDGVPVPLIIAAGGGGRAYGAKTDTFHPERLENNSSVLGLNGNSGAAGGGGGWNDNTSLLWAGKSLQEGATGGHSCPQAMKKWGWETRGGFGGGGGGCSSGGGGGGYIGGNAASNNDPEMDGEDGVSFISPLGILYTPALKVMEGHGEVNIKHYLNCSHCEVDECHMDPESHKVICFCDHGTVLAEDGVSCIVSPTPEPHLPLSLILSVVTSALVAALVLAFSGIMIVYRRKHQELQAMQMELQSPEYKLSKLRTSTIMTDYNPNYCFAGKTSSISDLKEVPRKNITLIRGLGHGAFGEVYEGQVSGMPNDPSPLQVAVKTLPEVCSEQDELDFLMEALIISKFNHQNIVRCIGVSLQSLPRFILLELMAGGDLKSFLRETRPRPSQPSSLAMLDLLHVARDIACGCQYLEENHFIHRDIAARNCLLTCPGPGRVAKIGDFGMARDIYRASYYRKGGCAMLPVKWMPPEAFMEGIFTSKTDTWSFGVLLWEIFSLGYMPYPSKSNQEVLEFVTSGGRMDPPKNCPGPVYRIMTQCWQHQPEDRPNFAIILERIEYCTQDPDVINTALPIEYGPLVEEEEKVPVRPKDPEGVPPLLVSQQAKREEERSPAAPPPLPTTSSGKAAKKPTAAEISVRVPRGPAVEGGHVNMAFSQSNPPSELHKVHGSRNKPTSLWNPTYGSWFTEKPTKKNNPIAKKEPHDRGNLGLEGSCTVPPNVATGRLPGASLLLEPSSLTANMKEVPLFRLRHFPCGNVNYGYQQQGLPLEAATAPGAGHYEDTILKSKNSMNQPGP

> <PDB ID(s) of Target Chain>
2XB7,2XBA,3AOX,5FTO,5FTQ,6E0R,6EBW,6EDL,6MX8,7JY4,7JYR,7JYS,7JYT,7LS0,7MZW,7MZY,7N00,7NX3,7NX4,8ARJ

> <UniProt (SwissProt) Recommended Name of Target Chain>
ALK tyrosine kinase receptor

> <UniProt (SwissProt) Entry Name of Target Chain>
ALK_HUMAN

> <UniProt (SwissProt) Primary ID of Target Chain>
Q9UM73

> <UniProt (SwissProt) Secondary ID(s) of Target Chain>
A6P4T4 A6P4V4 Q4ZFX9 Q53QQ6 Q53RZ4 Q59FI3 Q9Y4K6

> <UniProt (SwissProt) Alternative ID(s) of Target Chain>


> <UniProt (TrEMBL) Submitted Name of Target Chain>


> <UniProt (TrEMBL) Entry Name of Target Chain>


> <UniProt (TrEMBL) Primary ID of Target Chain>


> <UniProt (TrEMBL) Secondary ID(s) of Target Chain>


> <UniProt (TrEMBL) Alternative ID(s) of Target Chain>


$$$$

  SciTegic05061409512D

 29 32  0  0  0  0            999 V2000
    8.5664  -15.1907    0.0000 C   0  0
    8.5664  -14.3657    0.0000 C   0  0
    9.2808  -13.9532    0.0000 C   0  0
    9.9953  -14.3657    0.0000 C   0  0
    9.9953  -15.1907    0.0000 C   0  0
    9.2808  -15.6032    0.0000 N   0  0
    7.8519  -15.6032    0.0000 N   0  0
    7.8519  -13.9532    0.0000 O   0  0
    7.1374  -14.3657    0.0000 C   0  0  2  0  0  0
    7.1374  -15.1907    0.0000 C   0  0
    6.4230  -13.9532    0.0000 C   0  0
    5.7085  -14.3657    0.0000 C   0  0
    4.9940  -13.9532    0.0000 C   0  0
    4.9940  -13.1282    0.0000 C   0  0
    5.7085  -12.7157    0.0000 C   0  0
    6.4230  -13.1282    0.0000 C   0  0
    5.0410  -15.6756    0.0000 N   0  0
    5.7085  -15.1907    0.0000 N   0  0
    6.3759  -15.6756    0.0000 N   0  0
    6.1210  -16.4602    0.0000 C   0  0
    5.2960  -16.4602    0.0000 C   0  0
    5.7085  -11.8907    0.0000 F   0  0
   11.6030  -12.9612    0.0000 N   0  0
   12.0155  -13.6756    0.0000 N   0  0
   11.4635  -14.2887    0.0000 C   0  0
   10.7098  -13.9532    0.0000 C   0  0
   10.7960  -13.1327    0.0000 C   0  0
   11.6350  -15.0957    0.0000 C   0  0
   11.9385  -12.2075    0.0000 C   0  0
  1  2  1  0
  2  3  2  0
  3  4  1  0
  4  5  2  0
  5  6  1  0
  1  6  2  0
  1  7  1  0
  9 10  1  6
  8  9  1  0
 11 12  1  0
 12 13  2  0
 13 14  1  0
 14 15  2  0
 15 16  1  0
 11 16  2  0
 17 18  1  0
 18 19  1  0
 19 20  2  0
 20 21  1  0
 17 21  2  0
 12 18  1  0
 15 22  1  0
  9 11  1  0
  2  8  1  0
 23 24  1  0
 24 25  2  0
 25 26  1  0
 26 27  2  0
 23 27  1  0
 25 28  1  0
 23 29  1  0
  4 26  1  0
M  END
> <From>
www.bindingDB.org

> <BindingDB Reactant_set_id>
50103566

> <Ligand InChI>
InChI=1S/C20H20FN7O/c1-12-17(11-27(3)26-12)14-8-19(20(22)23-10-14)29-13(2)16-9-15(21)4-5-18(16)28-24-6-7-25-28/h4-11,13H,1-3H3,(H2,22,23)/t13-/m1/s1

> <Ligand InChI Key>
RZEJOJRZSRSZQC-CYBMUJFWSA-N

> <BindingDB MonomerID>
50018818

> <BindingDB Ligand Name>
CHEMBL3128075

> <Target Name>
ALK tyrosine kinase receptor

> <Target Source Organism According to Curator or DataSource>
Homo sapiens

> <Ki (nM)>
 2.6

> <IC50 (nM)>


> <Kd (nM)>


> <EC50 (nM)>


> <kon (M-1-s-1)>


> <koff (s-1)>


> <pH>


> <Temp C>


> <Curation/DataSource>
ChEMBL

> <Article DOI>
10.1021/jm500261q

> <BindingDB Entry DOI>
10.7270/Q2K35W68

> <PMID>
24819116

> <PubChem AID>


> <Patent Number>


> <Authors>
Johnson, TW; Richardson, PF; Bailey, S; Brooun, A; Burke, BJ; Collins, MR; Cui, JJ; Deal, JG; Deng, YL; Dinh, D; Engstrom, LD; He, M; Hoffman, J; Hoffman, RL; Huang, Q; Kania, RS; Kath, JC; Lam, H; Lam, JL; Le, PT; Lingardo, L; Liu, W; McTigue, M; Palmer, CL; Sach, NW; Smeal, T; Smith, GL; Stewart, AE; Timofeevski, S; Zhu, H; Zhu, J; Zou, HY; Edwards, MP

> <Date of publication>
6/12/2014

> <Date in BindingDB>
2/11/2015

> <Institution>
Pfizer Inc

> <Link to Ligand in BindingDB>
http://www.bindingdb.org/bind/chemsearch/marvin/MolStructure.jsp?monomerid=50018818

> <Link to Ligand-Target Pair in BindingDB>
http://www.bindingdb.org/jsp/dbsearch/PrimarySearch_ki.jsp?energyterm=kJ/mole&tag=pol&polymerid=5809&target=ALK+tyrosine+kinase+receptor&column=ki&startPg=0&Increment=50&submit=Search

> <Link to Ligand-Target Pair in BindingDB>
http://www.bindingdb.org/jsp/dbsearch/PrimarySearch_ki.jsp?energyterm=kJ/mole&tag=r21&monomerid=50018818&enzyme=ALK+tyrosine+kinase+receptor&column=ki&startPg=0&Increment=50&submit=Search

> <Ligand HET ID in PDB>


> <PDB ID(s) for Ligand-Target Complex>


> <PubChem CID of Ligand>
76311144

> <PubChem SID of Ligand>
103929871

> <ChEBI ID of Ligand>


> <ChEMBL ID of Ligand>
CHEMBL3128075

> <DrugBank ID of Ligand>


> <IUPHAR_GRAC ID of Ligand>


> <KEGG ID of Ligand>


> <ZINC ID of Ligand>
ZINC33891495

> <Number of Protein Chains in Target (bigger than 1 implies a multichain complex)>
1

> <BindingDB Target Chain Sequence>
MGAIGLLWLLPLLLSTAAVGSGMGTGQRAGSPAAGPPLQPREPLSYSRLQRKSLAVDFVVPSLFRVYARDLLLPPSSSELKAGRPEARGSLALDCAPLLRLLGPAPGVSWTAGSPAPAEARTLSRVLKGGSVRKLRRAKQLVLELGEEAILEGCVGPPGEAAVGLLQFNLSELFSWWIRQGEGRLRIRLMPEKKASEVGREGRLSAAIRASQPRLLFQIFGTGHSSLESPTNMPSPSPDYFTWNLTWIMKDSFPFLSHRSRYGLECSFDFPCELEYSPPLHDLRNQSWSWRRIPSEEASQMDLLDGPGAERSKEMPRGSFLLLNTSADSKHTILSPWMRSSSEHCTLAVSVHRHLQPSGRYIAQLLPHNEAAREILLMPTPGKHGWTVLQGRIGRPDNPFRVALEYISSGNRSLSAVDFFALKNCSEGTSPGSKMALQSSFTCWNGTVLQLGQACDFHQDCAQGEDESQMCRKLPVGFYCNFEDGFCGWTQGTLSPHTPQWQVRTLKDARFQDHQDHALLLSTTDVPASESATVTSATFPAPIKSSPCELRMSWLIRGVLRGNVSLVLVENKTGKEQGRMVWHVAAYEGLSLWQWMVLPLLDVSDRFWLQMVAWWGQGSRAIVAFDNISISLDCYLTISGEDKILQNTAPKSRNLFERNPNKELKPGENSPRQTPIFDPTVHWLFTTCGASGPHGPTQAQCNNAYQNSNLSVEVGSEGPLKGIQIWKVPATDTYSISGYGAAGGKGGKNTMMRSHGVSVLGIFNLEKDDMLYILVGQQGEDACPSTNQLIQKVCIGENNVIEEEIRVNRSVHEWAGGGGGGGGATYVFKMKDGVPVPLIIAAGGGGRAYGAKTDTFHPERLENNSSVLGLNGNSGAAGGGGGWNDNTSLLWAGKSLQEGATGGHSCPQAMKKWGWETRGGFGGGGGGCSSGGGGGGYIGGNAASNNDPEMDGEDGVSFISPLGILYTPALKVMEGHGEVNIKHYLNCSHCEVDECHMDPESHKVICFCDHGTVLAEDGVSCIVSPTPEPHLPLSLILSVVTSALVAALVLAFSGIMIVYRRKHQELQAMQMELQSPEYKLSKLRTSTIMTDYNPNYCFAGKTSSISDLKEVPRKNITLIRGLGHGAFGEVYEGQVSGMPNDPSPLQVAVKTLPEVCSEQDELDFLMEALIISKFNHQNIVRCIGVSLQSLPRFILLELMAGGDLKSFLRETRPRPSQPSSLAMLDLLHVARDIACGCQYLEENHFIHRDIAARNCLLTCPGPGRVAKIGDFGMARDIYRASYYRKGGCAMLPVKWMPPEAFMEGIFTSKTDTWSFGVLLWEIFSLGYMPYPSKSNQEVLEFVTSGGRMDPPKNCPGPVYRIMTQCWQHQPEDRPNFAIILERIEYCTQDPDVINTALPIEYGPLVEEEEKVPVRPKDPEGVPPLLVSQQAKREEERSPAAPPPLPTTSSGKAAKKPTAAEISVRVPRGPAVEGGHVNMAFSQSNPPSELHKVHGSRNKPTSLWNPTYGSWFTEKPTKKNNPIAKKEPHDRGNLGLEGSCTVPPNVATGRLPGASLLLEPSSLTANMKEVPLFRLRHFPCGNVNYGYQQQGLPLEAATAPGAGHYEDTILKSKNSMNQPGP

> <PDB ID(s) of Target Chain>
2XB7,2XBA,3AOX,5FTO,5FTQ,6E0R,6EBW,6EDL,6MX8,7JY4,7JYR,7JYS,7JYT,7LS0,7MZW,7MZY,7N00,7NX3,7NX4,8ARJ

> <UniProt (SwissProt) Recommended Name of Target Chain>
ALK tyrosine kinase receptor

> <UniProt (SwissProt) Entry Name of Target Chain>
ALK_HUMAN

> <UniProt (SwissProt) Primary ID of Target Chain>
Q9UM73

> <UniProt (SwissProt) Secondary ID(s) of Target Chain>
A6P4T4 A6P4V4 Q4ZFX9 Q53QQ6 Q53RZ4 Q59FI3 Q9Y4K6

> <UniProt (SwissProt) Alternative ID(s) of Target Chain>


> <UniProt (TrEMBL) Submitted Name of Target Chain>


> <UniProt (TrEMBL) Entry Name of Target Chain>


> <UniProt (TrEMBL) Primary ID of Target Chain>


> <UniProt (TrEMBL) Secondary ID(s) of Target Chain>


> <UniProt (TrEMBL) Alternative ID(s) of Target Chain>


$$$$

  SciTegic09261414532D

 28 30  0  0  0  0            999 V2000
    5.9843  -11.3234    0.0000 C   0  0
    6.7184  -11.6748    0.0000 C   0  0
    7.2800  -11.0797    0.0000 N   0  0
    6.8875  -10.3616    0.0000 N   0  0
    6.0833  -10.5131    0.0000 C   0  0
    5.2622  -11.7145    0.0000 C   0  0
    3.8261  -12.4994    0.0000 C   0  0
    3.8452  -11.6814    0.0000 C   0  0
    4.5632  -11.2889    0.0000 C   0  0
    5.2430  -12.5325    0.0000 C   0  0
    4.5250  -12.9250    0.0000 N   0  0
    3.1081  -12.8919    0.0000 N   0  0
    3.1463  -11.2558    0.0000 O   0  0
    3.1657  -10.4374    0.0000 C   0  0  2  0  0  0
    3.9030  -10.0833    0.0000 C   0  0
    2.4629  -10.0182    0.0000 C   0  0
    1.7485  -10.4171    0.0000 C   0  0
    1.0457   -9.9978    0.0000 C   0  0
    1.0575   -9.1796    0.0000 C   0  0
    1.7720   -8.7807    0.0000 C   0  0
    2.4747   -9.1999    0.0000 C   0  0
    0.3313  -10.3967    0.0000 F   0  0
    7.2371   -9.6230    0.0000 C   0  0
    6.8678  -12.4782    0.0000 C   0  0
    3.1882   -8.8016    0.0000 C   0  0
    3.8900   -9.2203    0.0000 O   0  0
    3.1999   -7.9844    0.0000 N   0  0
    2.4982   -7.5657    0.0000 C   0  0
  6  1  1  0
  1  2  1  0
  2  3  2  0
  3  4  1  0
  4  5  1  0
  5  1  2  0
  7  8  1  0
  8  9  2  0
  9  6  1  0
  6 10  2  0
 10 11  1  0
  7 11  2  0
  7 12  1  0
 14 15  1  1
 13 14  1  0
 16 17  1  0
 17 18  2  0
 18 19  1  0
 19 20  2  0
 20 21  1  0
 16 21  2  0
 18 22  1  0
 14 16  1  0
  8 13  1  0
  4 23  1  0
  2 24  1  0
 21 25  1  0
 25 26  2  0
 25 27  1  0
 27 28  1  0
M  END
> <From>
www.bindingDB.org

> <BindingDB Reactant_set_id>
50103519

> <Ligand InChI>
InChI=1S/C20H22FN5O2/c1-11-17(10-26(4)25-11)13-7-18(19(22)24-9-13)28-12(2)16-8-14(21)5-6-15(16)20(27)23-3/h5-10,12H,1-4H3,(H2,22,24)(H,23,27)/t12-/m1/s1

> <Ligand InChI Key>
WKWCRLSGXLINPN-GFCCVEGCSA-N

> <BindingDB MonomerID>
50018819

> <BindingDB Ligand Name>
CHEMBL3286809

> <Target Name>
ALK tyrosine kinase receptor

> <Target Source Organism According to Curator or DataSource>
Homo sapiens

> <Ki (nM)>
 2.8

> <IC50 (nM)>


> <Kd (nM)>


> <EC50 (nM)>


> <kon (M-1-s-1)>


> <koff (s-1)>


> <pH>


> <Temp C>


> <Curation/DataSource>
ChEMBL

> <Article DOI>
10.1021/jm500261q

> <BindingDB Entry DOI>
10.7270/Q2K35W68

> <PMID>
24819116

> <PubChem AID>


> <Patent Number>


> <Authors>
Johnson, TW; Richardson, PF; Bailey, S; Brooun, A; Burke, BJ; Collins, MR; Cui, JJ; Deal, JG; Deng, YL; Dinh, D; Engstrom, LD; He, M; Hoffman, J; Hoffman, RL; Huang, Q; Kania, RS; Kath, JC; Lam, H; Lam, JL; Le, PT; Lingardo, L; Liu, W; McTigue, M; Palmer, CL; Sach, NW; Smeal, T; Smith, GL; Stewart, AE; Timofeevski, S; Zhu, H; Zhu, J; Zou, HY; Edwards, MP

> <Date of publication>
6/12/2014

> <Date in BindingDB>
2/11/2015

> <Institution>
Pfizer Inc

> <Link to Ligand in BindingDB>
http://www.bindingdb.org/bind/chemsearch/marvin/MolStructure.jsp?monomerid=50018819

> <Link to Ligand-Target Pair in BindingDB>
http://www.bindingdb.org/jsp/dbsearch/PrimarySearch_ki.jsp?energyterm=kJ/mole&tag=pol&polymerid=5809&target=ALK+tyrosine+kinase+receptor&column=ki&startPg=0&Increment=50&submit=Search

> <Link to Ligand-Target Pair in BindingDB>
http://www.bindingdb.org/jsp/dbsearch/PrimarySearch_ki.jsp?energyterm=kJ/mole&tag=r21&monomerid=50018819&enzyme=ALK+tyrosine+kinase+receptor&column=ki&startPg=0&Increment=50&submit=Search

> <Ligand HET ID in PDB>


> <PDB ID(s) for Ligand-Target Complex>


> <PubChem CID of Ligand>
90644194

> <PubChem SID of Ligand>
103929872

> <ChEBI ID of Ligand>


> <ChEMBL ID of Ligand>
CHEMBL3286809

> <DrugBank ID of Ligand>


> <IUPHAR_GRAC ID of Ligand>


> <KEGG ID of Ligand>


> <ZINC ID of Ligand>
ZINC13364392

> <Number of Protein Chains in Target (bigger than 1 implies a multichain complex)>
1

> <BindingDB Target Chain Sequence>
MGAIGLLWLLPLLLSTAAVGSGMGTGQRAGSPAAGPPLQPREPLSYSRLQRKSLAVDFVVPSLFRVYARDLLLPPSSSELKAGRPEARGSLALDCAPLLRLLGPAPGVSWTAGSPAPAEARTLSRVLKGGSVRKLRRAKQLVLELGEEAILEGCVGPPGEAAVGLLQFNLSELFSWWIRQGEGRLRIRLMPEKKASEVGREGRLSAAIRASQPRLLFQIFGTGHSSLESPTNMPSPSPDYFTWNLTWIMKDSFPFLSHRSRYGLECSFDFPCELEYSPPLHDLRNQSWSWRRIPSEEASQMDLLDGPGAERSKEMPRGSFLLLNTSADSKHTILSPWMRSSSEHCTLAVSVHRHLQPSGRYIAQLLPHNEAAREILLMPTPGKHGWTVLQGRIGRPDNPFRVALEYISSGNRSLSAVDFFALKNCSEGTSPGSKMALQSSFTCWNGTVLQLGQACDFHQDCAQGEDESQMCRKLPVGFYCNFEDGFCGWTQGTLSPHTPQWQVRTLKDARFQDHQDHALLLSTTDVPASESATVTSATFPAPIKSSPCELRMSWLIRGVLRGNVSLVLVENKTGKEQGRMVWHVAAYEGLSLWQWMVLPLLDVSDRFWLQMVAWWGQGSRAIVAFDNISISLDCYLTISGEDKILQNTAPKSRNLFERNPNKELKPGENSPRQTPIFDPTVHWLFTTCGASGPHGPTQAQCNNAYQNSNLSVEVGSEGPLKGIQIWKVPATDTYSISGYGAAGGKGGKNTMMRSHGVSVLGIFNLEKDDMLYILVGQQGEDACPSTNQLIQKVCIGENNVIEEEIRVNRSVHEWAGGGGGGGGATYVFKMKDGVPVPLIIAAGGGGRAYGAKTDTFHPERLENNSSVLGLNGNSGAAGGGGGWNDNTSLLWAGKSLQEGATGGHSCPQAMKKWGWETRGGFGGGGGGCSSGGGGGGYIGGNAASNNDPEMDGEDGVSFISPLGILYTPALKVMEGHGEVNIKHYLNCSHCEVDECHMDPESHKVICFCDHGTVLAEDGVSCIVSPTPEPHLPLSLILSVVTSALVAALVLAFSGIMIVYRRKHQELQAMQMELQSPEYKLSKLRTSTIMTDYNPNYCFAGKTSSISDLKEVPRKNITLIRGLGHGAFGEVYEGQVSGMPNDPSPLQVAVKTLPEVCSEQDELDFLMEALIISKFNHQNIVRCIGVSLQSLPRFILLELMAGGDLKSFLRETRPRPSQPSSLAMLDLLHVARDIACGCQYLEENHFIHRDIAARNCLLTCPGPGRVAKIGDFGMARDIYRASYYRKGGCAMLPVKWMPPEAFMEGIFTSKTDTWSFGVLLWEIFSLGYMPYPSKSNQEVLEFVTSGGRMDPPKNCPGPVYRIMTQCWQHQPEDRPNFAIILERIEYCTQDPDVINTALPIEYGPLVEEEEKVPVRPKDPEGVPPLLVSQQAKREEERSPAAPPPLPTTSSGKAAKKPTAAEISVRVPRGPAVEGGHVNMAFSQSNPPSELHKVHGSRNKPTSLWNPTYGSWFTEKPTKKNNPIAKKEPHDRGNLGLEGSCTVPPNVATGRLPGASLLLEPSSLTANMKEVPLFRLRHFPCGNVNYGYQQQGLPLEAATAPGAGHYEDTILKSKNSMNQPGP

> <PDB ID(s) of Target Chain>
2XB7,2XBA,3AOX,5FTO,5FTQ,6E0R,6EBW,6EDL,6MX8,7JY4,7JYR,7JYS,7JYT,7LS0,7MZW,7MZY,7N00,7NX3,7NX4,8ARJ

> <UniProt (SwissProt) Recommended Name of Target Chain>
ALK tyrosine kinase receptor

> <UniProt (SwissProt) Entry Name of Target Chain>
ALK_HUMAN

> <UniProt (SwissProt) Primary ID of Target Chain>
Q9UM73

> <UniProt (SwissProt) Secondary ID(s) of Target Chain>
A6P4T4 A6P4V4 Q4ZFX9 Q53QQ6 Q53RZ4 Q59FI3 Q9Y4K6

> <UniProt (SwissProt) Alternative ID(s) of Target Chain>


> <UniProt (TrEMBL) Submitted Name of Target Chain>


> <UniProt (TrEMBL) Entry Name of Target Chain>


> <UniProt (TrEMBL) Primary ID of Target Chain>


> <UniProt (TrEMBL) Secondary ID(s) of Target Chain>


> <UniProt (TrEMBL) Alternative ID(s) of Target Chain>


$$$$

  SciTegic09261414532D

 25 27  0  0  0  0            999 V2000
   13.1536   -5.7019    0.0000 C   0  0
   13.1727   -4.8838    0.0000 C   0  0
   13.8908   -4.4913    0.0000 C   0  0
   14.5897   -4.9169    0.0000 C   0  0
   14.5706   -5.7350    0.0000 C   0  0
   13.8525   -6.1275    0.0000 N   0  0
   12.4356   -6.0944    0.0000 N   0  0
   15.3077   -4.5244    0.0000 C   0  0
   12.4738   -4.4582    0.0000 O   0  0
   12.4932   -3.6399    0.0000 C   0  0  2  0  0  0
   13.2305   -3.2858    0.0000 C   0  0
   11.7905   -3.2206    0.0000 C   0  0
   11.0760   -3.6195    0.0000 C   0  0
   10.3733   -3.2003    0.0000 C   0  0
   10.3850   -2.3820    0.0000 C   0  0
   11.0995   -1.9831    0.0000 C   0  0
   11.8022   -2.4024    0.0000 C   0  0
    9.6588   -3.5992    0.0000 F   0  0
   12.5157   -2.0040    0.0000 O   0  0
   12.5275   -1.1869    0.0000 C   0  0
   16.0418   -4.8759    0.0000 N   0  0
   16.6034   -4.2807    0.0000 N   0  0
   16.2109   -3.5626    0.0000 N   0  0
   15.4068   -3.7141    0.0000 C   0  0
   16.1913   -5.6793    0.0000 C   0  0
  1  2  1  0
  2  3  2  0
  3  4  1  0
  4  5  2  0
  5  6  1  0
  1  6  2  0
  1  7  1  0
  4  8  1  0
 10 11  1  1
  9 10  1  0
 12 13  1  0
 13 14  2  0
 14 15  1  0
 15 16  2  0
 16 17  1  0
 12 17  2  0
 14 18  1  0
 10 12  1  0
  2  9  1  0
 17 19  1  0
 19 20  1  0
  8 21  1  0
 21 22  1  0
 22 23  2  0
 23 24  1  0
 24  8  2  0
 21 25  1  0
M  END
> <From>
www.bindingDB.org

> <BindingDB Reactant_set_id>
50103515

> <Ligand InChI>
InChI=1S/C17H18FN5O2/c1-10(13-7-12(18)4-5-15(13)24-3)25-16-6-11(8-20-17(16)19)14-9-21-22-23(14)2/h4-10H,1-3H3,(H2,19,20)/t10-/m1/s1

> <Ligand InChI Key>
GXUFIECYEKHMLD-SNVBAGLBSA-N

> <BindingDB MonomerID>
50018816

> <BindingDB Ligand Name>
CHEMBL3286808

> <Target Name>
ALK tyrosine kinase receptor

> <Target Source Organism According to Curator or DataSource>
Homo sapiens

> <Ki (nM)>
 4.0

> <IC50 (nM)>


> <Kd (nM)>


> <EC50 (nM)>


> <kon (M-1-s-1)>


> <koff (s-1)>


> <pH>


> <Temp C>


> <Curation/DataSource>
ChEMBL

> <Article DOI>
10.1021/jm500261q

> <BindingDB Entry DOI>
10.7270/Q2K35W68

> <PMID>
24819116

> <PubChem AID>


> <Patent Number>


> <Authors>
Johnson, TW; Richardson, PF; Bailey, S; Brooun, A; Burke, BJ; Collins, MR; Cui, JJ; Deal, JG; Deng, YL; Dinh, D; Engstrom, LD; He, M; Hoffman, J; Hoffman, RL; Huang, Q; Kania, RS; Kath, JC; Lam, H; Lam, JL; Le, PT; Lingardo, L; Liu, W; McTigue, M; Palmer, CL; Sach, NW; Smeal, T; Smith, GL; Stewart, AE; Timofeevski, S; Zhu, H; Zhu, J; Zou, HY; Edwards, MP

> <Date of publication>
6/12/2014

> <Date in BindingDB>
2/11/2015

> <Institution>
Pfizer Inc

> <Link to Ligand in BindingDB>
http://www.bindingdb.org/bind/chemsearch/marvin/MolStructure.jsp?monomerid=50018816

> <Link to Ligand-Target Pair in BindingDB>
http://www.bindingdb.org/jsp/dbsearch/PrimarySearch_ki.jsp?energyterm=kJ/mole&tag=pol&polymerid=5809&target=ALK+tyrosine+kinase+receptor&column=ki&startPg=0&Increment=50&submit=Search

> <Link to Ligand-Target Pair in BindingDB>
http://www.bindingdb.org/jsp/dbsearch/PrimarySearch_ki.jsp?energyterm=kJ/mole&tag=r21&monomerid=50018816&enzyme=ALK+tyrosine+kinase+receptor&column=ki&startPg=0&Increment=50&submit=Search

> <Ligand HET ID in PDB>
3U9

> <PDB ID(s) for Ligand-Target Complex>
4CNH

> <PubChem CID of Ligand>
67467779

> <PubChem SID of Ligand>
103929869

> <ChEBI ID of Ligand>


> <ChEMBL ID of Ligand>
CHEMBL3286808

> <DrugBank ID of Ligand>


> <IUPHAR_GRAC ID of Ligand>


> <KEGG ID of Ligand>


> <ZINC ID of Ligand>
ZINC36080037

> <Number of Protein Chains in Target (bigger than 1 implies a multichain complex)>
1

> <BindingDB Target Chain Sequence>
MGAIGLLWLLPLLLSTAAVGSGMGTGQRAGSPAAGPPLQPREPLSYSRLQRKSLAVDFVVPSLFRVYARDLLLPPSSSELKAGRPEARGSLALDCAPLLRLLGPAPGVSWTAGSPAPAEARTLSRVLKGGSVRKLRRAKQLVLELGEEAILEGCVGPPGEAAVGLLQFNLSELFSWWIRQGEGRLRIRLMPEKKASEVGREGRLSAAIRASQPRLLFQIFGTGHSSLESPTNMPSPSPDYFTWNLTWIMKDSFPFLSHRSRYGLECSFDFPCELEYSPPLHDLRNQSWSWRRIPSEEASQMDLLDGPGAERSKEMPRGSFLLLNTSADSKHTILSPWMRSSSEHCTLAVSVHRHLQPSGRYIAQLLPHNEAAREILLMPTPGKHGWTVLQGRIGRPDNPFRVALEYISSGNRSLSAVDFFALKNCSEGTSPGSKMALQSSFTCWNGTVLQLGQACDFHQDCAQGEDESQMCRKLPVGFYCNFEDGFCGWTQGTLSPHTPQWQVRTLKDARFQDHQDHALLLSTTDVPASESATVTSATFPAPIKSSPCELRMSWLIRGVLRGNVSLVLVENKTGKEQGRMVWHVAAYEGLSLWQWMVLPLLDVSDRFWLQMVAWWGQGSRAIVAFDNISISLDCYLTISGEDKILQNTAPKSRNLFERNPNKELKPGENSPRQTPIFDPTVHWLFTTCGASGPHGPTQAQCNNAYQNSNLSVEVGSEGPLKGIQIWKVPATDTYSISGYGAAGGKGGKNTMMRSHGVSVLGIFNLEKDDMLYILVGQQGEDACPSTNQLIQKVCIGENNVIEEEIRVNRSVHEWAGGGGGGGGATYVFKMKDGVPVPLIIAAGGGGRAYGAKTDTFHPERLENNSSVLGLNGNSGAAGGGGGWNDNTSLLWAGKSLQEGATGGHSCPQAMKKWGWETRGGFGGGGGGCSSGGGGGGYIGGNAASNNDPEMDGEDGVSFISPLGILYTPALKVMEGHGEVNIKHYLNCSHCEVDECHMDPESHKVICFCDHGTVLAEDGVSCIVSPTPEPHLPLSLILSVVTSALVAALVLAFSGIMIVYRRKHQELQAMQMELQSPEYKLSKLRTSTIMTDYNPNYCFAGKTSSISDLKEVPRKNITLIRGLGHGAFGEVYEGQVSGMPNDPSPLQVAVKTLPEVCSEQDELDFLMEALIISKFNHQNIVRCIGVSLQSLPRFILLELMAGGDLKSFLRETRPRPSQPSSLAMLDLLHVARDIACGCQYLEENHFIHRDIAARNCLLTCPGPGRVAKIGDFGMARDIYRASYYRKGGCAMLPVKWMPPEAFMEGIFTSKTDTWSFGVLLWEIFSLGYMPYPSKSNQEVLEFVTSGGRMDPPKNCPGPVYRIMTQCWQHQPEDRPNFAIILERIEYCTQDPDVINTALPIEYGPLVEEEEKVPVRPKDPEGVPPLLVSQQAKREEERSPAAPPPLPTTSSGKAAKKPTAAEISVRVPRGPAVEGGHVNMAFSQSNPPSELHKVHGSRNKPTSLWNPTYGSWFTEKPTKKNNPIAKKEPHDRGNLGLEGSCTVPPNVATGRLPGASLLLEPSSLTANMKEVPLFRLRHFPCGNVNYGYQQQGLPLEAATAPGAGHYEDTILKSKNSMNQPGP

> <PDB ID(s) of Target Chain>
2XB7,2XBA,3AOX,5FTO,5FTQ,6E0R,6EBW,6EDL,6MX8,7JY4,7JYR,7JYS,7JYT,7LS0,7MZW,7MZY,7N00,7NX3,7NX4,8ARJ

> <UniProt (SwissProt) Recommended Name of Target Chain>
ALK tyrosine kinase receptor

> <UniProt (SwissProt) Entry Name of Target Chain>
ALK_HUMAN

> <UniProt (SwissProt) Primary ID of Target Chain>
Q9UM73

> <UniProt (SwissProt) Secondary ID(s) of Target Chain>
A6P4T4 A6P4V4 Q4ZFX9 Q53QQ6 Q53RZ4 Q59FI3 Q9Y4K6

> <UniProt (SwissProt) Alternative ID(s) of Target Chain>


> <UniProt (TrEMBL) Submitted Name of Target Chain>


> <UniProt (TrEMBL) Entry Name of Target Chain>


> <UniProt (TrEMBL) Primary ID of Target Chain>


> <UniProt (TrEMBL) Secondary ID(s) of Target Chain>


> <UniProt (TrEMBL) Alternative ID(s) of Target Chain>


$$$$

  SciTegic09261414532D

 27 30  0  0  0  0            999 V2000
    6.7331  -10.3013    0.0000 C   0  0
    5.2834  -11.0938    0.0000 C   0  0
    5.3027  -10.2678    0.0000 C   0  0
    6.0276   -9.8716    0.0000 C   0  0
    6.7139  -11.1272    0.0000 C   0  0
    5.9890  -11.5234    0.0000 N   0  0
    4.5585  -11.4899    0.0000 N   0  0
    4.5972   -9.8382    0.0000 O   0  0
    7.4556   -9.9050    0.0000 C   0  0
    8.2340  -10.1772    0.0000 N   0  0
    8.7334   -9.5209    0.0000 N   0  0
    8.2636   -8.8433    0.0000 C   0  0
    8.4715  -10.9673    0.0000 C   0  0
    3.8732  -10.2338    0.0000 C   0  0
    3.1685   -9.8048    0.0000 C   0  0
    3.1927   -8.9799    0.0000 C   0  0
    2.4888   -8.5508    0.0000 C   0  0
    1.7640   -8.9466    0.0000 C   0  0
    1.7472   -9.7757    0.0000 C   0  0
    2.4517  -10.2009    0.0000 C   0  0
    3.9177   -8.5864    0.0000 O   0  0
    4.6211   -9.0176    0.0000 C   0  0
    5.3461   -8.6242    0.0000 C   0  0
    6.0495   -9.0554    0.0000 C   0  0
    1.0247  -10.1740    0.0000 F   0  0
    6.7746   -8.6620    0.0000 C   0  0
    7.4779   -9.0932    0.0000 C   0  0
  2  3  1  0
  3  4  2  0
  4  1  1  0
  1  5  2  0
  5  6  1  0
  2  6  2  0
  2  7  1  0
  3  8  1  0
  1  9  1  0
 27  9  2  0
  9 10  1  0
 10 11  1  0
 11 12  2  0
 12 27  1  0
 10 13  1  0
  8 14  1  0
 14 15  1  0
 15 16  2  0
 16 17  1  0
 17 18  2  0
 18 19  1  0
 19 20  2  0
 20 15  1  0
 16 21  1  0
 21 22  1  0
 22 23  1  0
 23 24  1  0
 19 25  1  0
 24 26  1  0
 26 27  1  0
M  END
> <From>
www.bindingDB.org

> <BindingDB Reactant_set_id>
50103536

> <Ligand InChI>
InChI=1S/C20H21FN4O2/c1-25-19-13(11-24-25)4-2-3-7-26-17-6-5-16(21)8-15(17)12-27-18-9-14(19)10-23-20(18)22/h5-6,8-11H,2-4,7,12H2,1H3,(H2,22,23)

> <Ligand InChI Key>
XZDITQKBHNRUDE-UHFFFAOYSA-N

> <BindingDB MonomerID>
50018827

> <BindingDB Ligand Name>
CHEMBL3286817

> <Target Name>
ALK tyrosine kinase receptor

> <Target Source Organism According to Curator or DataSource>
Homo sapiens

> <Ki (nM)>
 5.0

> <IC50 (nM)>


> <Kd (nM)>


> <EC50 (nM)>


> <kon (M-1-s-1)>


> <koff (s-1)>


> <pH>


> <Temp C>


> <Curation/DataSource>
ChEMBL

> <Article DOI>
10.1021/jm500261q

> <BindingDB Entry DOI>
10.7270/Q2K35W68

> <PMID>
24819116

> <PubChem AID>


> <Patent Number>


> <Authors>
Johnson, TW; Richardson, PF; Bailey, S; Brooun, A; Burke, BJ; Collins, MR; Cui, JJ; Deal, JG; Deng, YL; Dinh, D; Engstrom, LD; He, M; Hoffman, J; Hoffman, RL; Huang, Q; Kania, RS; Kath, JC; Lam, H; Lam, JL; Le, PT; Lingardo, L; Liu, W; McTigue, M; Palmer, CL; Sach, NW; Smeal, T; Smith, GL; Stewart, AE; Timofeevski, S; Zhu, H; Zhu, J; Zou, HY; Edwards, MP

> <Date of publication>
6/12/2014

> <Date in BindingDB>
2/11/2015

> <Institution>
Pfizer Inc

> <Link to Ligand in BindingDB>
http://www.bindingdb.org/bind/chemsearch/marvin/MolStructure.jsp?monomerid=50018827

> <Link to Ligand-Target Pair in BindingDB>
http://www.bindingdb.org/jsp/dbsearch/PrimarySearch_ki.jsp?energyterm=kJ/mole&tag=pol&polymerid=5809&target=ALK+tyrosine+kinase+receptor&column=ki&startPg=0&Increment=50&submit=Search

> <Link to Ligand-Target Pair in BindingDB>
http://www.bindingdb.org/jsp/dbsearch/PrimarySearch_ki.jsp?energyterm=kJ/mole&tag=r21&monomerid=50018827&enzyme=ALK+tyrosine+kinase+receptor&column=ki&startPg=0&Increment=50&submit=Search

> <Ligand HET ID in PDB>


> <PDB ID(s) for Ligand-Target Complex>


> <PubChem CID of Ligand>
71732097

> <PubChem SID of Ligand>
103929880

> <ChEBI ID of Ligand>


> <ChEMBL ID of Ligand>
CHEMBL3286817

> <DrugBank ID of Ligand>


> <IUPHAR_GRAC ID of Ligand>


> <KEGG ID of Ligand>


> <ZINC ID of Ligand>
ZINC33891520

> <Number of Protein Chains in Target (bigger than 1 implies a multichain complex)>
1

> <BindingDB Target Chain Sequence>
MGAIGLLWLLPLLLSTAAVGSGMGTGQRAGSPAAGPPLQPREPLSYSRLQRKSLAVDFVVPSLFRVYARDLLLPPSSSELKAGRPEARGSLALDCAPLLRLLGPAPGVSWTAGSPAPAEARTLSRVLKGGSVRKLRRAKQLVLELGEEAILEGCVGPPGEAAVGLLQFNLSELFSWWIRQGEGRLRIRLMPEKKASEVGREGRLSAAIRASQPRLLFQIFGTGHSSLESPTNMPSPSPDYFTWNLTWIMKDSFPFLSHRSRYGLECSFDFPCELEYSPPLHDLRNQSWSWRRIPSEEASQMDLLDGPGAERSKEMPRGSFLLLNTSADSKHTILSPWMRSSSEHCTLAVSVHRHLQPSGRYIAQLLPHNEAAREILLMPTPGKHGWTVLQGRIGRPDNPFRVALEYISSGNRSLSAVDFFALKNCSEGTSPGSKMALQSSFTCWNGTVLQLGQACDFHQDCAQGEDESQMCRKLPVGFYCNFEDGFCGWTQGTLSPHTPQWQVRTLKDARFQDHQDHALLLSTTDVPASESATVTSATFPAPIKSSPCELRMSWLIRGVLRGNVSLVLVENKTGKEQGRMVWHVAAYEGLSLWQWMVLPLLDVSDRFWLQMVAWWGQGSRAIVAFDNISISLDCYLTISGEDKILQNTAPKSRNLFERNPNKELKPGENSPRQTPIFDPTVHWLFTTCGASGPHGPTQAQCNNAYQNSNLSVEVGSEGPLKGIQIWKVPATDTYSISGYGAAGGKGGKNTMMRSHGVSVLGIFNLEKDDMLYILVGQQGEDACPSTNQLIQKVCIGENNVIEEEIRVNRSVHEWAGGGGGGGGATYVFKMKDGVPVPLIIAAGGGGRAYGAKTDTFHPERLENNSSVLGLNGNSGAAGGGGGWNDNTSLLWAGKSLQEGATGGHSCPQAMKKWGWETRGGFGGGGGGCSSGGGGGGYIGGNAASNNDPEMDGEDGVSFISPLGILYTPALKVMEGHGEVNIKHYLNCSHCEVDECHMDPESHKVICFCDHGTVLAEDGVSCIVSPTPEPHLPLSLILSVVTSALVAALVLAFSGIMIVYRRKHQELQAMQMELQSPEYKLSKLRTSTIMTDYNPNYCFAGKTSSISDLKEVPRKNITLIRGLGHGAFGEVYEGQVSGMPNDPSPLQVAVKTLPEVCSEQDELDFLMEALIISKFNHQNIVRCIGVSLQSLPRFILLELMAGGDLKSFLRETRPRPSQPSSLAMLDLLHVARDIACGCQYLEENHFIHRDIAARNCLLTCPGPGRVAKIGDFGMARDIYRASYYRKGGCAMLPVKWMPPEAFMEGIFTSKTDTWSFGVLLWEIFSLGYMPYPSKSNQEVLEFVTSGGRMDPPKNCPGPVYRIMTQCWQHQPEDRPNFAIILERIEYCTQDPDVINTALPIEYGPLVEEEEKVPVRPKDPEGVPPLLVSQQAKREEERSPAAPPPLPTTSSGKAAKKPTAAEISVRVPRGPAVEGGHVNMAFSQSNPPSELHKVHGSRNKPTSLWNPTYGSWFTEKPTKKNNPIAKKEPHDRGNLGLEGSCTVPPNVATGRLPGASLLLEPSSLTANMKEVPLFRLRHFPCGNVNYGYQQQGLPLEAATAPGAGHYEDTILKSKNSMNQPGP

> <PDB ID(s) of Target Chain>
2XB7,2XBA,3AOX,5FTO,5FTQ,6E0R,6EBW,6EDL,6MX8,7JY4,7JYR,7JYS,7JYT,7LS0,7MZW,7MZY,7N00,7NX3,7NX4,8ARJ

> <UniProt (SwissProt) Recommended Name of Target Chain>
ALK tyrosine kinase receptor

> <UniProt (SwissProt) Entry Name of Target Chain>
ALK_HUMAN

> <UniProt (SwissProt) Primary ID of Target Chain>
Q9UM73

> <UniProt (SwissProt) Secondary ID(s) of Target Chain>
A6P4T4 A6P4V4 Q4ZFX9 Q53QQ6 Q53RZ4 Q59FI3 Q9Y4K6

> <UniProt (SwissProt) Alternative ID(s) of Target Chain>


> <UniProt (TrEMBL) Submitted Name of Target Chain>


> <UniProt (TrEMBL) Entry Name of Target Chain>


> <UniProt (TrEMBL) Primary ID of Target Chain>


> <UniProt (TrEMBL) Secondary ID(s) of Target Chain>


> <UniProt (TrEMBL) Alternative ID(s) of Target Chain>


$$$$
 
  Mrv0541 11221423062D          

 30 33  0  0  0  0            999 V2000
   -0.9640    1.6774    0.0000 C   0  0  0  0  0  0  0  0  0  0  0  0
   -0.9653    0.8499    0.0000 C   0  0  0  0  0  0  0  0  0  0  0  0
   -0.2523    0.4370    0.0000 C   0  0  0  0  0  0  0  0  0  0  0  0
    0.4669    0.8504    0.0000 C   0  0  0  0  0  0  0  0  0  0  0  0
    0.4637    1.6815    0.0000 C   0  0  0  0  0  0  0  0  0  0  0  0
   -0.2543    2.0903    0.0000 N   0  0  0  0  0  0  0  0  0  0  0  0
   -1.6814    0.4425    0.0000 C   0  0  0  0  0  0  0  0  0  0  0  0
   -2.4724    0.6769    0.0000 C   0  0  0  0  0  0  0  0  0  0  0  0
   -2.9398   -0.0030    0.0000 N   0  0  0  0  0  0  0  0  0  0  0  0
   -2.4376   -0.6576    0.0000 N   0  0  0  0  0  0  0  0  0  0  0  0
   -1.6599   -0.3821    0.0000 C   0  0  0  0  0  0  0  0  0  0  0  0
   -3.7651   -0.0266    0.0000 C   0  0  0  0  0  0  0  0  0  0  0  0
   -4.1948    0.6787    0.0000 C   0  0  0  0  0  0  0  0  0  0  0  0
   -5.0160    0.6593    0.0000 C   0  0  0  0  0  0  0  0  0  0  0  0
   -5.4137   -0.0639    0.0000 N   0  0  0  0  0  0  0  0  0  0  0  0
   -4.9839   -0.7692    0.0000 C   0  0  0  0  0  0  0  0  0  0  0  0
   -4.1564   -0.7513    0.0000 C   0  0  0  0  0  0  0  0  0  0  0  0
    1.1762    2.0975    0.0000 N   0  0  0  0  0  0  0  0  0  0  0  0
    1.1818    0.4386    0.0000 O   0  0  0  0  0  0  0  0  0  0  0  0
    1.1825   -0.3864    0.0000 C   0  0  1  0  0  0  0  0  0  0  0  0
    1.8973   -0.7982    0.0000 C   0  0  0  0  0  0  0  0  0  0  0  0
    0.4685   -0.7996    0.0000 C   0  0  0  0  0  0  0  0  0  0  0  0
    1.8953   -1.6235    0.0000 C   0  0  0  0  0  0  0  0  0  0  0  0
    2.6093   -2.0354    0.0000 C   0  0  0  0  0  0  0  0  0  0  0  0
    3.3244   -1.6221    0.0000 C   0  0  0  0  0  0  0  0  0  0  0  0
    3.3210   -0.7930    0.0000 C   0  0  0  0  0  0  0  0  0  0  0  0
    2.6065   -0.3849    0.0000 C   0  0  0  0  0  0  0  0  0  0  0  0
    2.6028    0.4401    0.0000 Cl  0  0  0  0  0  0  0  0  0  0  0  0
    4.0337   -0.3773    0.0000 F   0  0  0  0  0  0  0  0  0  0  0  0
    1.1806   -2.0354    0.0000 Cl  0  0  0  0  0  0  0  0  0  0  0  0
 12 17  1  0  0  0  0
 13 14  1  0  0  0  0
 14 15  1  0  0  0  0
 15 16  1  0  0  0  0
 16 17  1  0  0  0  0
  9 12  1  0  0  0  0
  4  5  2  0  0  0  0
  5 18  1  0  0  0  0
  2  3  2  0  0  0  0
  4 19  1  0  0  0  0
  8  9  1  0  0  0  0
 20 19  1  0  0  0  0
  9 10  1  0  0  0  0
 20 21  1  0  0  0  0
 10 11  2  0  0  0  0
 20 22  1  1  0  0  0
 11  7  1  0  0  0  0
 21 23  2  0  0  0  0
  2  7  1  0  0  0  0
 23 24  1  0  0  0  0
 12 13  1  0  0  0  0
 24 25  2  0  0  0  0
  5  6  1  0  0  0  0
 25 26  1  0  0  0  0
  6  1  2  0  0  0  0
 26 27  2  0  0  0  0
 27 21  1  0  0  0  0
  7  8  2  0  0  0  0
 27 28  1  0  0  0  0
  1  2  1  0  0  0  0
 26 29  1  0  0  0  0
  3  4  1  0  0  0  0
 23 30  1  0  0  0  0
M  END
> <From>
www.bindingDB.org

> <BindingDB Reactant_set_id>
50103562

> <Ligand InChI>
InChI=1S/C21H22Cl2FN5O/c1-12(19-16(22)2-3-17(24)20(19)23)30-18-8-13(9-27-21(18)25)14-10-28-29(11-14)15-4-6-26-7-5-15/h2-3,8-12,15,26H,4-7H2,1H3,(H2,25,27)/t12-/m1/s1

> <Ligand InChI Key>
KTEIFNKAUNYNJU-GFCCVEGCSA-N

> <BindingDB MonomerID>
50306682

> <BindingDB Ligand Name>
(R)-3-(1-(2,6-dichloro-3-fluorophenyl)ethoxy)-5-(1-(piperidin-4-yl)-1H-pyrazol-4-yl)pyridin-2-amine::3-(2,6-dichloro-3-fluorobenzyloxy)-5-(1-(piperidin-4-yl)-1H-pyrazol-4-yl)pyridin-2-amine::3-[(1R)-1-(2,6-dichloro-3-fluorophenyl)ethoxy]-5-(1-piperidin-4-yl-1H-pyrazol-4-yl)pyridin-2-amine::CHEMBL601719::CRIZOTINIB::PF-2341066::US10370379, Crizotinib::US10543199, Compound Crizotinib::US10780082, Compound Crizotinib::US11059827, Compound Crizotinib::US11517561, Compound Crizotinib::US9126941, PF-2341066::US9199944, Crizotinib::US9226923, Crizotinib

> <Target Name>
ALK tyrosine kinase receptor

> <Target Source Organism According to Curator or DataSource>
Homo sapiens

> <Ki (nM)>
 8.2

> <IC50 (nM)>


> <Kd (nM)>


> <EC50 (nM)>


> <kon (M-1-s-1)>


> <koff (s-1)>


> <pH>


> <Temp C>


> <Curation/DataSource>
ChEMBL

> <Article DOI>
10.1021/jm500261q

> <BindingDB Entry DOI>
10.7270/Q2K35W68

> <PMID>
24819116

> <PubChem AID>


> <Patent Number>


> <Authors>
Johnson, TW; Richardson, PF; Bailey, S; Brooun, A; Burke, BJ; Collins, MR; Cui, JJ; Deal, JG; Deng, YL; Dinh, D; Engstrom, LD; He, M; Hoffman, J; Hoffman, RL; Huang, Q; Kania, RS; Kath, JC; Lam, H; Lam, JL; Le, PT; Lingardo, L; Liu, W; McTigue, M; Palmer, CL; Sach, NW; Smeal, T; Smith, GL; Stewart, AE; Timofeevski, S; Zhu, H; Zhu, J; Zou, HY; Edwards, MP

> <Date of publication>
6/12/2014

> <Date in BindingDB>
2/11/2015

> <Institution>
Pfizer Inc

> <Link to Ligand in BindingDB>
http://www.bindingdb.org/bind/chemsearch/marvin/MolStructure.jsp?monomerid=50306682

> <Link to Ligand-Target Pair in BindingDB>
http://www.bindingdb.org/jsp/dbsearch/PrimarySearch_ki.jsp?energyterm=kJ/mole&tag=pol&polymerid=5809&target=ALK+tyrosine+kinase+receptor&column=ki&startPg=0&Increment=50&submit=Search

> <Link to Ligand-Target Pair in BindingDB>
http://www.bindingdb.org/jsp/dbsearch/PrimarySearch_ki.jsp?energyterm=kJ/mole&tag=r21&monomerid=50306682&enzyme=ALK+tyrosine+kinase+receptor&column=ki&startPg=0&Increment=50&submit=Search

> <Ligand HET ID in PDB>
VGH

> <PDB ID(s) for Ligand-Target Complex>
2YFX,5AAA,5AAC,5AAB,4ANS,4ANQ,2XP2,2WGJ,3ZBF,4C9W,6IMZ

> <PubChem CID of Ligand>
11626560

> <PubChem SID of Ligand>
104161043

> <ChEBI ID of Ligand>
64310

> <ChEMBL ID of Ligand>
CHEMBL601719

> <DrugBank ID of Ligand>
DB08700

> <IUPHAR_GRAC ID of Ligand>
4903

> <KEGG ID of Ligand>


> <ZINC ID of Ligand>
ZINC35902489

> <Number of Protein Chains in Target (bigger than 1 implies a multichain complex)>
1

> <BindingDB Target Chain Sequence>
MGAIGLLWLLPLLLSTAAVGSGMGTGQRAGSPAAGPPLQPREPLSYSRLQRKSLAVDFVVPSLFRVYARDLLLPPSSSELKAGRPEARGSLALDCAPLLRLLGPAPGVSWTAGSPAPAEARTLSRVLKGGSVRKLRRAKQLVLELGEEAILEGCVGPPGEAAVGLLQFNLSELFSWWIRQGEGRLRIRLMPEKKASEVGREGRLSAAIRASQPRLLFQIFGTGHSSLESPTNMPSPSPDYFTWNLTWIMKDSFPFLSHRSRYGLECSFDFPCELEYSPPLHDLRNQSWSWRRIPSEEASQMDLLDGPGAERSKEMPRGSFLLLNTSADSKHTILSPWMRSSSEHCTLAVSVHRHLQPSGRYIAQLLPHNEAAREILLMPTPGKHGWTVLQGRIGRPDNPFRVALEYISSGNRSLSAVDFFALKNCSEGTSPGSKMALQSSFTCWNGTVLQLGQACDFHQDCAQGEDESQMCRKLPVGFYCNFEDGFCGWTQGTLSPHTPQWQVRTLKDARFQDHQDHALLLSTTDVPASESATVTSATFPAPIKSSPCELRMSWLIRGVLRGNVSLVLVENKTGKEQGRMVWHVAAYEGLSLWQWMVLPLLDVSDRFWLQMVAWWGQGSRAIVAFDNISISLDCYLTISGEDKILQNTAPKSRNLFERNPNKELKPGENSPRQTPIFDPTVHWLFTTCGASGPHGPTQAQCNNAYQNSNLSVEVGSEGPLKGIQIWKVPATDTYSISGYGAAGGKGGKNTMMRSHGVSVLGIFNLEKDDMLYILVGQQGEDACPSTNQLIQKVCIGENNVIEEEIRVNRSVHEWAGGGGGGGGATYVFKMKDGVPVPLIIAAGGGGRAYGAKTDTFHPERLENNSSVLGLNGNSGAAGGGGGWNDNTSLLWAGKSLQEGATGGHSCPQAMKKWGWETRGGFGGGGGGCSSGGGGGGYIGGNAASNNDPEMDGEDGVSFISPLGILYTPALKVMEGHGEVNIKHYLNCSHCEVDECHMDPESHKVICFCDHGTVLAEDGVSCIVSPTPEPHLPLSLILSVVTSALVAALVLAFSGIMIVYRRKHQELQAMQMELQSPEYKLSKLRTSTIMTDYNPNYCFAGKTSSISDLKEVPRKNITLIRGLGHGAFGEVYEGQVSGMPNDPSPLQVAVKTLPEVCSEQDELDFLMEALIISKFNHQNIVRCIGVSLQSLPRFILLELMAGGDLKSFLRETRPRPSQPSSLAMLDLLHVARDIACGCQYLEENHFIHRDIAARNCLLTCPGPGRVAKIGDFGMARDIYRASYYRKGGCAMLPVKWMPPEAFMEGIFTSKTDTWSFGVLLWEIFSLGYMPYPSKSNQEVLEFVTSGGRMDPPKNCPGPVYRIMTQCWQHQPEDRPNFAIILERIEYCTQDPDVINTALPIEYGPLVEEEEKVPVRPKDPEGVPPLLVSQQAKREEERSPAAPPPLPTTSSGKAAKKPTAAEISVRVPRGPAVEGGHVNMAFSQSNPPSELHKVHGSRNKPTSLWNPTYGSWFTEKPTKKNNPIAKKEPHDRGNLGLEGSCTVPPNVATGRLPGASLLLEPSSLTANMKEVPLFRLRHFPCGNVNYGYQQQGLPLEAATAPGAGHYEDTILKSKNSMNQPGP

> <PDB ID(s) of Target Chain>
2XB7,2XBA,3AOX,5FTO,5FTQ,6E0R,6EBW,6EDL,6MX8,7JY4,7JYR,7JYS,7JYT,7LS0,7MZW,7MZY,7N00,7NX3,7NX4,8ARJ

> <UniProt (SwissProt) Recommended Name of Target Chain>
ALK tyrosine kinase receptor

> <UniProt (SwissProt) Entry Name of Target Chain>
ALK_HUMAN

> <UniProt (SwissProt) Primary ID of Target Chain>
Q9UM73

> <UniProt (SwissProt) Secondary ID(s) of Target Chain>
A6P4T4 A6P4V4 Q4ZFX9 Q53QQ6 Q53RZ4 Q59FI3 Q9Y4K6

> <UniProt (SwissProt) Alternative ID(s) of Target Chain>


> <UniProt (TrEMBL) Submitted Name of Target Chain>


> <UniProt (TrEMBL) Entry Name of Target Chain>


> <UniProt (TrEMBL) Primary ID of Target Chain>


> <UniProt (TrEMBL) Secondary ID(s) of Target Chain>


> <UniProt (TrEMBL) Alternative ID(s) of Target Chain>


$$$$

  SciTegic09261414532D

 29 31  0  0  0  0            999 V2000
   29.5631  -11.0840    0.0000 C   0  0
   28.8410  -11.4751    0.0000 C   0  0
   27.4049  -12.2600    0.0000 C   0  0
   27.4241  -11.4420    0.0000 C   0  0
   28.1421  -11.0495    0.0000 N   0  0
   28.8219  -12.2932    0.0000 C   0  0
   28.1039  -12.6856    0.0000 N   0  0
   26.6869  -12.6525    0.0000 N   0  0
   26.7252  -11.0164    0.0000 O   0  0
   26.7445  -10.1981    0.0000 C   0  0  2  0  0  0
   27.4819   -9.8439    0.0000 C   0  0
   26.0418   -9.7788    0.0000 C   0  0
   25.3273  -10.1777    0.0000 C   0  0
   24.6246   -9.7584    0.0000 C   0  0
   24.6364   -8.9402    0.0000 C   0  0
   25.3508   -8.5413    0.0000 C   0  0
   26.0535   -8.9606    0.0000 C   0  0
   23.9101  -10.1573    0.0000 F   0  0
   30.2604  -11.5153    0.0000 C   0  0
   30.9820  -11.1249    0.0000 N   0  0
   31.0048  -10.3031    0.0000 C   0  0
   30.3001   -9.8733    0.0000 C   0  0
   29.5813  -10.2662    0.0000 C   0  0
   30.2367  -12.3321    0.0000 O   0  0
   29.5175  -12.7200    0.0000 C   0  0
   26.7670   -8.5622    0.0000 C   0  0
   27.4688   -8.9809    0.0000 O   0  0
   26.7788   -7.7451    0.0000 N   0  0
   27.4923   -7.3467    0.0000 C   0  0
  2  1  1  0
  3  4  1  0
  4  5  2  0
  5  2  1  0
  2  6  2  0
  6  7  1  0
  3  7  2  0
  3  8  1  0
 10 11  1  1
  9 10  1  0
 12 13  1  0
 13 14  2  0
 14 15  1  0
 15 16  2  0
 16 17  1  0
 12 17  2  0
 14 18  1  0
 10 12  1  0
  4  9  1  0
  1 19  2  0
 19 20  1  0
 20 21  2  0
 21 22  1  0
 22 23  2  0
 23  1  1  0
 19 24  1  0
 24 25  1  0
 17 26  1  0
 26 27  2  0
 26 28  1  0
 28 29  1  0
M  END
> <From>
www.bindingDB.org

> <BindingDB Reactant_set_id>
50103570

> <Ligand InChI>
InChI=1S/C20H20FN5O3/c1-11(15-9-12(21)6-7-13(15)18(27)23-2)29-20-17(22)25-10-16(26-20)14-5-4-8-24-19(14)28-3/h4-11H,1-3H3,(H2,22,25)(H,23,27)/t11-/m1/s1

> <Ligand InChI Key>
AMLQLZSHSQNJKQ-LLVKDONJSA-N

> <BindingDB MonomerID>
50018822

> <BindingDB Ligand Name>
CHEMBL3286812

> <Target Name>
ALK tyrosine kinase receptor

> <Target Source Organism According to Curator or DataSource>
Homo sapiens

> <Ki (nM)>
 8.2

> <IC50 (nM)>


> <Kd (nM)>


> <EC50 (nM)>


> <kon (M-1-s-1)>


> <koff (s-1)>


> <pH>


> <Temp C>


> <Curation/DataSource>
ChEMBL

> <Article DOI>
10.1021/jm500261q

> <BindingDB Entry DOI>
10.7270/Q2K35W68

> <PMID>
24819116

> <PubChem AID>


> <Patent Number>


> <Authors>
Johnson, TW; Richardson, PF; Bailey, S; Brooun, A; Burke, BJ; Collins, MR; Cui, JJ; Deal, JG; Deng, YL; Dinh, D; Engstrom, LD; He, M; Hoffman, J; Hoffman, RL; Huang, Q; Kania, RS; Kath, JC; Lam, H; Lam, JL; Le, PT; Lingardo, L; Liu, W; McTigue, M; Palmer, CL; Sach, NW; Smeal, T; Smith, GL; Stewart, AE; Timofeevski, S; Zhu, H; Zhu, J; Zou, HY; Edwards, MP

> <Date of publication>
6/12/2014

> <Date in BindingDB>
2/11/2015

> <Institution>
Pfizer Inc

> <Link to Ligand in BindingDB>
http://www.bindingdb.org/bind/chemsearch/marvin/MolStructure.jsp?monomerid=50018822

> <Link to Ligand-Target Pair in BindingDB>
http://www.bindingdb.org/jsp/dbsearch/PrimarySearch_ki.jsp?energyterm=kJ/mole&tag=pol&polymerid=5809&target=ALK+tyrosine+kinase+receptor&column=ki&startPg=0&Increment=50&submit=Search

> <Link to Ligand-Target Pair in BindingDB>
http://www.bindingdb.org/jsp/dbsearch/PrimarySearch_ki.jsp?energyterm=kJ/mole&tag=r21&monomerid=50018822&enzyme=ALK+tyrosine+kinase+receptor&column=ki&startPg=0&Increment=50&submit=Search

> <Ligand HET ID in PDB>
YPW

> <PDB ID(s) for Ligand-Target Complex>
4CMO

> <PubChem CID of Ligand>
73819542

> <PubChem SID of Ligand>
103929875

> <ChEBI ID of Ligand>


> <ChEMBL ID of Ligand>
CHEMBL3286812

> <DrugBank ID of Ligand>


> <IUPHAR_GRAC ID of Ligand>


> <KEGG ID of Ligand>


> <ZINC ID of Ligand>
ZINC33891515

> <Number of Protein Chains in Target (bigger than 1 implies a multichain complex)>
1

> <BindingDB Target Chain Sequence>
MGAIGLLWLLPLLLSTAAVGSGMGTGQRAGSPAAGPPLQPREPLSYSRLQRKSLAVDFVVPSLFRVYARDLLLPPSSSELKAGRPEARGSLALDCAPLLRLLGPAPGVSWTAGSPAPAEARTLSRVLKGGSVRKLRRAKQLVLELGEEAILEGCVGPPGEAAVGLLQFNLSELFSWWIRQGEGRLRIRLMPEKKASEVGREGRLSAAIRASQPRLLFQIFGTGHSSLESPTNMPSPSPDYFTWNLTWIMKDSFPFLSHRSRYGLECSFDFPCELEYSPPLHDLRNQSWSWRRIPSEEASQMDLLDGPGAERSKEMPRGSFLLLNTSADSKHTILSPWMRSSSEHCTLAVSVHRHLQPSGRYIAQLLPHNEAAREILLMPTPGKHGWTVLQGRIGRPDNPFRVALEYISSGNRSLSAVDFFALKNCSEGTSPGSKMALQSSFTCWNGTVLQLGQACDFHQDCAQGEDESQMCRKLPVGFYCNFEDGFCGWTQGTLSPHTPQWQVRTLKDARFQDHQDHALLLSTTDVPASESATVTSATFPAPIKSSPCELRMSWLIRGVLRGNVSLVLVENKTGKEQGRMVWHVAAYEGLSLWQWMVLPLLDVSDRFWLQMVAWWGQGSRAIVAFDNISISLDCYLTISGEDKILQNTAPKSRNLFERNPNKELKPGENSPRQTPIFDPTVHWLFTTCGASGPHGPTQAQCNNAYQNSNLSVEVGSEGPLKGIQIWKVPATDTYSISGYGAAGGKGGKNTMMRSHGVSVLGIFNLEKDDMLYILVGQQGEDACPSTNQLIQKVCIGENNVIEEEIRVNRSVHEWAGGGGGGGGATYVFKMKDGVPVPLIIAAGGGGRAYGAKTDTFHPERLENNSSVLGLNGNSGAAGGGGGWNDNTSLLWAGKSLQEGATGGHSCPQAMKKWGWETRGGFGGGGGGCSSGGGGGGYIGGNAASNNDPEMDGEDGVSFISPLGILYTPALKVMEGHGEVNIKHYLNCSHCEVDECHMDPESHKVICFCDHGTVLAEDGVSCIVSPTPEPHLPLSLILSVVTSALVAALVLAFSGIMIVYRRKHQELQAMQMELQSPEYKLSKLRTSTIMTDYNPNYCFAGKTSSISDLKEVPRKNITLIRGLGHGAFGEVYEGQVSGMPNDPSPLQVAVKTLPEVCSEQDELDFLMEALIISKFNHQNIVRCIGVSLQSLPRFILLELMAGGDLKSFLRETRPRPSQPSSLAMLDLLHVARDIACGCQYLEENHFIHRDIAARNCLLTCPGPGRVAKIGDFGMARDIYRASYYRKGGCAMLPVKWMPPEAFMEGIFTSKTDTWSFGVLLWEIFSLGYMPYPSKSNQEVLEFVTSGGRMDPPKNCPGPVYRIMTQCWQHQPEDRPNFAIILERIEYCTQDPDVINTALPIEYGPLVEEEEKVPVRPKDPEGVPPLLVSQQAKREEERSPAAPPPLPTTSSGKAAKKPTAAEISVRVPRGPAVEGGHVNMAFSQSNPPSELHKVHGSRNKPTSLWNPTYGSWFTEKPTKKNNPIAKKEPHDRGNLGLEGSCTVPPNVATGRLPGASLLLEPSSLTANMKEVPLFRLRHFPCGNVNYGYQQQGLPLEAATAPGAGHYEDTILKSKNSMNQPGP

> <PDB ID(s) of Target Chain>
2XB7,2XBA,3AOX,5FTO,5FTQ,6E0R,6EBW,6EDL,6MX8,7JY4,7JYR,7JYS,7JYT,7LS0,7MZW,7MZY,7N00,7NX3,7NX4,8ARJ

> <UniProt (SwissProt) Recommended Name of Target Chain>
ALK tyrosine kinase receptor

> <UniProt (SwissProt) Entry Name of Target Chain>
ALK_HUMAN

> <UniProt (SwissProt) Primary ID of Target Chain>
Q9UM73

> <UniProt (SwissProt) Secondary ID(s) of Target Chain>
A6P4T4 A6P4V4 Q4ZFX9 Q53QQ6 Q53RZ4 Q59FI3 Q9Y4K6

> <UniProt (SwissProt) Alternative ID(s) of Target Chain>


> <UniProt (TrEMBL) Submitted Name of Target Chain>


> <UniProt (TrEMBL) Entry Name of Target Chain>


> <UniProt (TrEMBL) Primary ID of Target Chain>


> <UniProt (TrEMBL) Secondary ID(s) of Target Chain>


> <UniProt (TrEMBL) Alternative ID(s) of Target Chain>


$$$$

  SciTegic05061409512D

 28 31  0  0  0  0            999 V2000
   10.1132  -15.5826    0.0000 C   0  0
   10.1132  -14.7576    0.0000 C   0  0
   10.8277  -14.3451    0.0000 C   0  0
   11.5422  -14.7576    0.0000 C   0  0
   11.5422  -15.5826    0.0000 C   0  0
   10.8277  -15.9951    0.0000 N   0  0
    9.3988  -15.9951    0.0000 N   0  0
   12.3429  -13.5246    0.0000 N   0  0
   13.1499  -13.3530    0.0000 N   0  0
   13.5624  -14.0675    0.0000 N   0  0
   13.0103  -14.6806    0.0000 C   0  0
   12.2567  -14.3451    0.0000 C   0  0
   11.7298  -12.9725    0.0000 C   0  0
    9.3988  -14.3451    0.0000 O   0  0
    8.6843  -14.7576    0.0000 C   0  0  2  0  0  0
    8.6843  -15.5826    0.0000 C   0  0
    7.9698  -14.3451    0.0000 C   0  0
    7.2554  -14.7576    0.0000 C   0  0
    6.5409  -14.3451    0.0000 C   0  0
    6.5409  -13.5201    0.0000 C   0  0
    7.2554  -13.1076    0.0000 C   0  0
    7.9698  -13.5201    0.0000 C   0  0
    6.5879  -16.0675    0.0000 N   0  0
    7.2554  -15.5826    0.0000 N   0  0
    7.9228  -16.0675    0.0000 N   0  0
    7.6679  -16.8521    0.0000 C   0  0
    6.8429  -16.8521    0.0000 C   0  0
    7.2554  -12.2826    0.0000 F   0  0
  1  2  1  0
  2  3  2  0
  3  4  1  0
  4  5  2  0
  5  6  1  0
  1  6  2  0
  1  7  1  0
  8  9  1  0
  9 10  2  0
 10 11  1  0
 11 12  2  0
  8 12  1  0
  8 13  1  0
  4 12  1  0
 15 16  1  6
 14 15  1  0
 17 18  1  0
 18 19  2  0
 19 20  1  0
 20 21  2  0
 21 22  1  0
 17 22  2  0
 23 24  1  0
 24 25  1  0
 25 26  2  0
 26 27  1  0
 23 27  2  0
 18 24  1  0
 21 28  1  0
 15 17  1  0
  2 14  1  0
M  END
> <From>
www.bindingDB.org

> <BindingDB Reactant_set_id>
50103516

> <Ligand InChI>
InChI=1S/C18H17FN8O/c1-11(14-8-13(19)3-4-15(14)27-23-5-6-24-27)28-17-7-12(9-21-18(17)20)16-10-22-25-26(16)2/h3-11H,1-2H3,(H2,20,21)/t11-/m1/s1

> <Ligand InChI Key>
OEAYZBGGCSQPKK-LLVKDONJSA-N

> <BindingDB MonomerID>
50018817

> <BindingDB Ligand Name>
CHEMBL3128060

> <Target Name>
ALK tyrosine kinase receptor

> <Target Source Organism According to Curator or DataSource>
Homo sapiens

> <Ki (nM)>
 9.0

> <IC50 (nM)>


> <Kd (nM)>


> <EC50 (nM)>


> <kon (M-1-s-1)>


> <koff (s-1)>


> <pH>


> <Temp C>


> <Curation/DataSource>
ChEMBL

> <Article DOI>
10.1021/jm500261q

> <BindingDB Entry DOI>
10.7270/Q2K35W68

> <PMID>
24819116

> <PubChem AID>


> <Patent Number>


> <Authors>
Johnson, TW; Richardson, PF; Bailey, S; Brooun, A; Burke, BJ; Collins, MR; Cui, JJ; Deal, JG; Deng, YL; Dinh, D; Engstrom, LD; He, M; Hoffman, J; Hoffman, RL; Huang, Q; Kania, RS; Kath, JC; Lam, H; Lam, JL; Le, PT; Lingardo, L; Liu, W; McTigue, M; Palmer, CL; Sach, NW; Smeal, T; Smith, GL; Stewart, AE; Timofeevski, S; Zhu, H; Zhu, J; Zou, HY; Edwards, MP

> <Date of publication>
6/12/2014

> <Date in BindingDB>
2/11/2015

> <Institution>
Pfizer Inc

> <Link to Ligand in BindingDB>
http://www.bindingdb.org/bind/chemsearch/marvin/MolStructure.jsp?monomerid=50018817

> <Link to Ligand-Target Pair in BindingDB>
http://www.bindingdb.org/jsp/dbsearch/PrimarySearch_ki.jsp?energyterm=kJ/mole&tag=pol&polymerid=5809&target=ALK+tyrosine+kinase+receptor&column=ki&startPg=0&Increment=50&submit=Search

> <Link to Ligand-Target Pair in BindingDB>
http://www.bindingdb.org/jsp/dbsearch/PrimarySearch_ki.jsp?energyterm=kJ/mole&tag=r21&monomerid=50018817&enzyme=ALK+tyrosine+kinase+receptor&column=ki&startPg=0&Increment=50&submit=Search

> <Ligand HET ID in PDB>


> <PDB ID(s) for Ligand-Target Complex>


> <PubChem CID of Ligand>
76318349

> <PubChem SID of Ligand>
103929870

> <ChEBI ID of Ligand>


> <ChEMBL ID of Ligand>
CHEMBL3128060

> <DrugBank ID of Ligand>


> <IUPHAR_GRAC ID of Ligand>


> <KEGG ID of Ligand>


> <ZINC ID of Ligand>
ZINC33891498

> <Number of Protein Chains in Target (bigger than 1 implies a multichain complex)>
1

> <BindingDB Target Chain Sequence>
MGAIGLLWLLPLLLSTAAVGSGMGTGQRAGSPAAGPPLQPREPLSYSRLQRKSLAVDFVVPSLFRVYARDLLLPPSSSELKAGRPEARGSLALDCAPLLRLLGPAPGVSWTAGSPAPAEARTLSRVLKGGSVRKLRRAKQLVLELGEEAILEGCVGPPGEAAVGLLQFNLSELFSWWIRQGEGRLRIRLMPEKKASEVGREGRLSAAIRASQPRLLFQIFGTGHSSLESPTNMPSPSPDYFTWNLTWIMKDSFPFLSHRSRYGLECSFDFPCELEYSPPLHDLRNQSWSWRRIPSEEASQMDLLDGPGAERSKEMPRGSFLLLNTSADSKHTILSPWMRSSSEHCTLAVSVHRHLQPSGRYIAQLLPHNEAAREILLMPTPGKHGWTVLQGRIGRPDNPFRVALEYISSGNRSLSAVDFFALKNCSEGTSPGSKMALQSSFTCWNGTVLQLGQACDFHQDCAQGEDESQMCRKLPVGFYCNFEDGFCGWTQGTLSPHTPQWQVRTLKDARFQDHQDHALLLSTTDVPASESATVTSATFPAPIKSSPCELRMSWLIRGVLRGNVSLVLVENKTGKEQGRMVWHVAAYEGLSLWQWMVLPLLDVSDRFWLQMVAWWGQGSRAIVAFDNISISLDCYLTISGEDKILQNTAPKSRNLFERNPNKELKPGENSPRQTPIFDPTVHWLFTTCGASGPHGPTQAQCNNAYQNSNLSVEVGSEGPLKGIQIWKVPATDTYSISGYGAAGGKGGKNTMMRSHGVSVLGIFNLEKDDMLYILVGQQGEDACPSTNQLIQKVCIGENNVIEEEIRVNRSVHEWAGGGGGGGGATYVFKMKDGVPVPLIIAAGGGGRAYGAKTDTFHPERLENNSSVLGLNGNSGAAGGGGGWNDNTSLLWAGKSLQEGATGGHSCPQAMKKWGWETRGGFGGGGGGCSSGGGGGGYIGGNAASNNDPEMDGEDGVSFISPLGILYTPALKVMEGHGEVNIKHYLNCSHCEVDECHMDPESHKVICFCDHGTVLAEDGVSCIVSPTPEPHLPLSLILSVVTSALVAALVLAFSGIMIVYRRKHQELQAMQMELQSPEYKLSKLRTSTIMTDYNPNYCFAGKTSSISDLKEVPRKNITLIRGLGHGAFGEVYEGQVSGMPNDPSPLQVAVKTLPEVCSEQDELDFLMEALIISKFNHQNIVRCIGVSLQSLPRFILLELMAGGDLKSFLRETRPRPSQPSSLAMLDLLHVARDIACGCQYLEENHFIHRDIAARNCLLTCPGPGRVAKIGDFGMARDIYRASYYRKGGCAMLPVKWMPPEAFMEGIFTSKTDTWSFGVLLWEIFSLGYMPYPSKSNQEVLEFVTSGGRMDPPKNCPGPVYRIMTQCWQHQPEDRPNFAIILERIEYCTQDPDVINTALPIEYGPLVEEEEKVPVRPKDPEGVPPLLVSQQAKREEERSPAAPPPLPTTSSGKAAKKPTAAEISVRVPRGPAVEGGHVNMAFSQSNPPSELHKVHGSRNKPTSLWNPTYGSWFTEKPTKKNNPIAKKEPHDRGNLGLEGSCTVPPNVATGRLPGASLLLEPSSLTANMKEVPLFRLRHFPCGNVNYGYQQQGLPLEAATAPGAGHYEDTILKSKNSMNQPGP

> <PDB ID(s) of Target Chain>
2XB7,2XBA,3AOX,5FTO,5FTQ,6E0R,6EBW,6EDL,6MX8,7JY4,7JYR,7JYS,7JYT,7LS0,7MZW,7MZY,7N00,7NX3,7NX4,8ARJ

> <UniProt (SwissProt) Recommended Name of Target Chain>
ALK tyrosine kinase receptor

> <UniProt (SwissProt) Entry Name of Target Chain>
ALK_HUMAN

> <UniProt (SwissProt) Primary ID of Target Chain>
Q9UM73

> <UniProt (SwissProt) Secondary ID(s) of Target Chain>
A6P4T4 A6P4V4 Q4ZFX9 Q53QQ6 Q53RZ4 Q59FI3 Q9Y4K6

> <UniProt (SwissProt) Alternative ID(s) of Target Chain>


> <UniProt (TrEMBL) Submitted Name of Target Chain>


> <UniProt (TrEMBL) Entry Name of Target Chain>


> <UniProt (TrEMBL) Primary ID of Target Chain>


> <UniProt (TrEMBL) Secondary ID(s) of Target Chain>


> <UniProt (TrEMBL) Alternative ID(s) of Target Chain>


$$$$

  SciTegic09261414532D

 29 32  0  0  0  0            999 V2000
   13.9232   -4.3540    0.0000 O   0  0
   13.2022   -4.7489    0.0000 C   0  0  2  0  0  0
   12.4968   -4.3201    0.0000 C   0  0
   12.5213   -3.4961    0.0000 C   0  0
   11.8166   -3.0673    0.0000 C   0  0
   11.0948   -3.4623    0.0000 C   0  0
   11.0777   -4.2903    0.0000 C   0  0
   11.7830   -4.7153    0.0000 C   0  0
   13.2477   -3.1035    0.0000 C   0  0
   10.3540   -4.6877    0.0000 F   0  0
   16.7970   -3.5930    0.0000 C   0  0
   14.6098   -4.7822    0.0000 C   0  0
   16.0580   -4.8176    0.0000 C   0  0
   14.6099   -5.6083    0.0000 C   0  0
   15.3558   -4.3881    0.0000 C   0  0
   16.0383   -5.6424    0.0000 C   0  0
   15.3164   -6.0378    0.0000 N   0  0
   13.8838   -6.0037    0.0000 N   0  0
   16.7816   -4.4221    0.0000 C   0  0
   17.5580   -4.6911    0.0000 C   0  0
   18.0586   -4.0349    0.0000 N   0  0
   17.5882   -3.3612    0.0000 N   0  0
   17.7964   -5.4784    0.0000 C   0  0
   12.7836   -5.4617    0.0000 C   0  0
   13.9638   -3.5444    0.0000 O   0  0
   13.2713   -2.2629    0.0000 N   0  0
   14.0111   -1.8632    0.0000 C   0  0
   12.5552   -1.8222    0.0000 C   0  0
   17.8671   -2.5678    0.0000 C   0  0
 12  1  1  0
  1  2  1  0
  2  3  1  0
  3  4  2  0
  4  5  1  0
  5  6  2  0
  6  7  1  0
  7  8  2  0
  8  3  1  0
  4  9  1  0
  7 10  1  0
 14 12  1  0
 12 15  2  0
 15 13  1  0
 13 16  2  0
 16 17  1  0
 14 17  2  0
 14 18  1  0
 13 19  1  0
 11 19  2  0
 19 20  1  0
 20 21  2  0
 21 22  1  0
 22 11  1  0
 20 23  1  0
  2 24  1  1
  9 25  2  0
  9 26  1  0
 26 27  1  0
 26 28  1  0
 27 11  1  0
 22 29  1  0
M  END
> <From>
www.bindingDB.org

> <BindingDB Reactant_set_id>
50103552

> <Ligand InChI>
InChI=1S/C21H22FN5O2/c1-11-19-13-7-18(20(23)24-9-13)29-12(2)16-8-14(22)5-6-15(16)21(28)26(3)10-17(19)27(4)25-11/h5-9,12H,10H2,1-4H3,(H2,23,24)/t12-/m0/s1

> <Ligand InChI Key>
ASQDMAQHZGURLM-LBPRGKRZSA-N

> <BindingDB MonomerID>
50018831

> <BindingDB Ligand Name>
CHEMBL3286821

> <Target Name>
ALK tyrosine kinase receptor

> <Target Source Organism According to Curator or DataSource>
Homo sapiens

> <Ki (nM)>
 17

> <IC50 (nM)>


> <Kd (nM)>


> <EC50 (nM)>


> <kon (M-1-s-1)>


> <koff (s-1)>


> <pH>


> <Temp C>


> <Curation/DataSource>
ChEMBL

> <Article DOI>
10.1021/jm500261q

> <BindingDB Entry DOI>
10.7270/Q2K35W68

> <PMID>
24819116

> <PubChem AID>


> <Patent Number>


> <Authors>
Johnson, TW; Richardson, PF; Bailey, S; Brooun, A; Burke, BJ; Collins, MR; Cui, JJ; Deal, JG; Deng, YL; Dinh, D; Engstrom, LD; He, M; Hoffman, J; Hoffman, RL; Huang, Q; Kania, RS; Kath, JC; Lam, H; Lam, JL; Le, PT; Lingardo, L; Liu, W; McTigue, M; Palmer, CL; Sach, NW; Smeal, T; Smith, GL; Stewart, AE; Timofeevski, S; Zhu, H; Zhu, J; Zou, HY; Edwards, MP

> <Date of publication>
6/12/2014

> <Date in BindingDB>
2/11/2015

> <Institution>
Pfizer Inc

> <Link to Ligand in BindingDB>
http://www.bindingdb.org/bind/chemsearch/marvin/MolStructure.jsp?monomerid=50018831

> <Link to Ligand-Target Pair in BindingDB>
http://www.bindingdb.org/jsp/dbsearch/PrimarySearch_ki.jsp?energyterm=kJ/mole&tag=pol&polymerid=5809&target=ALK+tyrosine+kinase+receptor&column=ki&startPg=0&Increment=50&submit=Search

> <Link to Ligand-Target Pair in BindingDB>
http://www.bindingdb.org/jsp/dbsearch/PrimarySearch_ki.jsp?energyterm=kJ/mole&tag=r21&monomerid=50018831&enzyme=ALK+tyrosine+kinase+receptor&column=ki&startPg=0&Increment=50&submit=Search

> <Ligand HET ID in PDB>


> <PDB ID(s) for Ligand-Target Complex>


> <PubChem CID of Ligand>
90644198

> <PubChem SID of Ligand>
103929884

> <ChEBI ID of Ligand>


> <ChEMBL ID of Ligand>
CHEMBL3286821

> <DrugBank ID of Ligand>


> <IUPHAR_GRAC ID of Ligand>


> <KEGG ID of Ligand>


> <ZINC ID of Ligand>
ZINC36080056

> <Number of Protein Chains in Target (bigger than 1 implies a multichain complex)>
1

> <BindingDB Target Chain Sequence>
MGAIGLLWLLPLLLSTAAVGSGMGTGQRAGSPAAGPPLQPREPLSYSRLQRKSLAVDFVVPSLFRVYARDLLLPPSSSELKAGRPEARGSLALDCAPLLRLLGPAPGVSWTAGSPAPAEARTLSRVLKGGSVRKLRRAKQLVLELGEEAILEGCVGPPGEAAVGLLQFNLSELFSWWIRQGEGRLRIRLMPEKKASEVGREGRLSAAIRASQPRLLFQIFGTGHSSLESPTNMPSPSPDYFTWNLTWIMKDSFPFLSHRSRYGLECSFDFPCELEYSPPLHDLRNQSWSWRRIPSEEASQMDLLDGPGAERSKEMPRGSFLLLNTSADSKHTILSPWMRSSSEHCTLAVSVHRHLQPSGRYIAQLLPHNEAAREILLMPTPGKHGWTVLQGRIGRPDNPFRVALEYISSGNRSLSAVDFFALKNCSEGTSPGSKMALQSSFTCWNGTVLQLGQACDFHQDCAQGEDESQMCRKLPVGFYCNFEDGFCGWTQGTLSPHTPQWQVRTLKDARFQDHQDHALLLSTTDVPASESATVTSATFPAPIKSSPCELRMSWLIRGVLRGNVSLVLVENKTGKEQGRMVWHVAAYEGLSLWQWMVLPLLDVSDRFWLQMVAWWGQGSRAIVAFDNISISLDCYLTISGEDKILQNTAPKSRNLFERNPNKELKPGENSPRQTPIFDPTVHWLFTTCGASGPHGPTQAQCNNAYQNSNLSVEVGSEGPLKGIQIWKVPATDTYSISGYGAAGGKGGKNTMMRSHGVSVLGIFNLEKDDMLYILVGQQGEDACPSTNQLIQKVCIGENNVIEEEIRVNRSVHEWAGGGGGGGGATYVFKMKDGVPVPLIIAAGGGGRAYGAKTDTFHPERLENNSSVLGLNGNSGAAGGGGGWNDNTSLLWAGKSLQEGATGGHSCPQAMKKWGWETRGGFGGGGGGCSSGGGGGGYIGGNAASNNDPEMDGEDGVSFISPLGILYTPALKVMEGHGEVNIKHYLNCSHCEVDECHMDPESHKVICFCDHGTVLAEDGVSCIVSPTPEPHLPLSLILSVVTSALVAALVLAFSGIMIVYRRKHQELQAMQMELQSPEYKLSKLRTSTIMTDYNPNYCFAGKTSSISDLKEVPRKNITLIRGLGHGAFGEVYEGQVSGMPNDPSPLQVAVKTLPEVCSEQDELDFLMEALIISKFNHQNIVRCIGVSLQSLPRFILLELMAGGDLKSFLRETRPRPSQPSSLAMLDLLHVARDIACGCQYLEENHFIHRDIAARNCLLTCPGPGRVAKIGDFGMARDIYRASYYRKGGCAMLPVKWMPPEAFMEGIFTSKTDTWSFGVLLWEIFSLGYMPYPSKSNQEVLEFVTSGGRMDPPKNCPGPVYRIMTQCWQHQPEDRPNFAIILERIEYCTQDPDVINTALPIEYGPLVEEEEKVPVRPKDPEGVPPLLVSQQAKREEERSPAAPPPLPTTSSGKAAKKPTAAEISVRVPRGPAVEGGHVNMAFSQSNPPSELHKVHGSRNKPTSLWNPTYGSWFTEKPTKKNNPIAKKEPHDRGNLGLEGSCTVPPNVATGRLPGASLLLEPSSLTANMKEVPLFRLRHFPCGNVNYGYQQQGLPLEAATAPGAGHYEDTILKSKNSMNQPGP

> <PDB ID(s) of Target Chain>
2XB7,2XBA,3AOX,5FTO,5FTQ,6E0R,6EBW,6EDL,6MX8,7JY4,7JYR,7JYS,7JYT,7LS0,7MZW,7MZY,7N00,7NX3,7NX4,8ARJ

> <UniProt (SwissProt) Recommended Name of Target Chain>
ALK tyrosine kinase receptor

> <UniProt (SwissProt) Entry Name of Target Chain>
ALK_HUMAN

> <UniProt (SwissProt) Primary ID of Target Chain>
Q9UM73

> <UniProt (SwissProt) Secondary ID(s) of Target Chain>
A6P4T4 A6P4V4 Q4ZFX9 Q53QQ6 Q53RZ4 Q59FI3 Q9Y4K6

> <UniProt (SwissProt) Alternative ID(s) of Target Chain>


> <UniProt (TrEMBL) Submitted Name of Target Chain>


> <UniProt (TrEMBL) Entry Name of Target Chain>


> <UniProt (TrEMBL) Primary ID of Target Chain>


> <UniProt (TrEMBL) Secondary ID(s) of Target Chain>


> <UniProt (TrEMBL) Alternative ID(s) of Target Chain>


$$$$

  SciTegic09261414532D

 29 32  0  0  0  0            999 V2000
   15.1954   -4.7994    0.0000 O   0  0
   14.4745   -5.1942    0.0000 C   0  0  2  0  0  0
   13.7691   -4.7653    0.0000 C   0  0
   13.7936   -3.9416    0.0000 C   0  0
   13.0891   -3.5129    0.0000 C   0  0
   12.3672   -3.9076    0.0000 C   0  0
   12.3503   -4.7357    0.0000 C   0  0
   13.0555   -5.1605    0.0000 C   0  0
   14.5199   -3.5491    0.0000 C   0  0
   11.6266   -5.1331    0.0000 F   0  0
   18.0689   -4.0384    0.0000 C   0  0
   15.8818   -5.2274    0.0000 C   0  0
   17.3299   -5.2628    0.0000 C   0  0
   15.8820   -6.0535    0.0000 C   0  0
   16.6278   -4.8334    0.0000 N   0  0
   17.3102   -6.0876    0.0000 C   0  0
   16.5884   -6.4829    0.0000 N   0  0
   15.1560   -6.4488    0.0000 N   0  0
   18.0534   -4.8675    0.0000 C   0  0
   18.8297   -5.1364    0.0000 C   0  0
   19.3303   -4.4802    0.0000 N   0  0
   18.8599   -3.8066    0.0000 N   0  0
   19.0680   -5.9236    0.0000 C   0  0
   14.0559   -5.9069    0.0000 C   0  0
   15.2360   -3.9898    0.0000 O   0  0
   14.5436   -2.7086    0.0000 N   0  0
   15.2832   -2.3088    0.0000 C   0  0
   13.8275   -2.2679    0.0000 C   0  0
   19.1388   -3.0134    0.0000 C   0  0
 12  1  1  0
  1  2  1  0
  2  3  1  0
  3  4  2  0
  4  5  1  0
  5  6  2  0
  6  7  1  0
  7  8  2  0
  8  3  1  0
  4  9  1  0
  7 10  1  0
 14 12  1  0
 12 15  2  0
 15 13  1  0
 13 16  2  0
 16 17  1  0
 14 17  2  0
 14 18  1  0
 13 19  1  0
 11 19  2  0
 19 20  1  0
 20 21  2  0
 21 22  1  0
 22 11  1  0
 20 23  1  0
  2 24  1  1
  9 25  2  0
  9 26  1  0
 26 27  1  0
 26 28  1  0
 27 11  1  0
 22 29  1  0
M  END
> <From>
www.bindingDB.org

> <BindingDB Reactant_set_id>
50103556

> <Ligand InChI>
InChI=1S/C20H21FN6O2/c1-10-17-15-8-23-18(22)19(24-15)29-11(2)14-7-12(21)5-6-13(14)20(28)26(3)9-16(17)27(4)25-10/h5-8,11H,9H2,1-4H3,(H2,22,23)/t11-/m0/s1

> <Ligand InChI Key>
BOSKQVUEUWJLFT-NSHDSACASA-N

> <BindingDB MonomerID>
50018834

> <BindingDB Ligand Name>
CHEMBL3286824

> <Target Name>
ALK tyrosine kinase receptor

> <Target Source Organism According to Curator or DataSource>
Homo sapiens

> <Ki (nM)>
 17

> <IC50 (nM)>


> <Kd (nM)>


> <EC50 (nM)>


> <kon (M-1-s-1)>


> <koff (s-1)>


> <pH>


> <Temp C>


> <Curation/DataSource>
ChEMBL

> <Article DOI>
10.1021/jm500261q

> <BindingDB Entry DOI>
10.7270/Q2K35W68

> <PMID>
24819116

> <PubChem AID>


> <Patent Number>


> <Authors>
Johnson, TW; Richardson, PF; Bailey, S; Brooun, A; Burke, BJ; Collins, MR; Cui, JJ; Deal, JG; Deng, YL; Dinh, D; Engstrom, LD; He, M; Hoffman, J; Hoffman, RL; Huang, Q; Kania, RS; Kath, JC; Lam, H; Lam, JL; Le, PT; Lingardo, L; Liu, W; McTigue, M; Palmer, CL; Sach, NW; Smeal, T; Smith, GL; Stewart, AE; Timofeevski, S; Zhu, H; Zhu, J; Zou, HY; Edwards, MP

> <Date of publication>
6/12/2014

> <Date in BindingDB>
2/11/2015

> <Institution>
Pfizer Inc

> <Link to Ligand in BindingDB>
http://www.bindingdb.org/bind/chemsearch/marvin/MolStructure.jsp?monomerid=50018834

> <Link to Ligand-Target Pair in BindingDB>
http://www.bindingdb.org/jsp/dbsearch/PrimarySearch_ki.jsp?energyterm=kJ/mole&tag=pol&polymerid=5809&target=ALK+tyrosine+kinase+receptor&column=ki&startPg=0&Increment=50&submit=Search

> <Link to Ligand-Target Pair in BindingDB>
http://www.bindingdb.org/jsp/dbsearch/PrimarySearch_ki.jsp?energyterm=kJ/mole&tag=r21&monomerid=50018834&enzyme=ALK+tyrosine+kinase+receptor&column=ki&startPg=0&Increment=50&submit=Search

> <Ligand HET ID in PDB>


> <PDB ID(s) for Ligand-Target Complex>


> <PubChem CID of Ligand>
90644200

> <PubChem SID of Ligand>
103929887

> <ChEBI ID of Ligand>


> <ChEMBL ID of Ligand>
CHEMBL3286824

> <DrugBank ID of Ligand>


> <IUPHAR_GRAC ID of Ligand>


> <KEGG ID of Ligand>


> <ZINC ID of Ligand>
ZINC36080054

> <Number of Protein Chains in Target (bigger than 1 implies a multichain complex)>
1

> <BindingDB Target Chain Sequence>
MGAIGLLWLLPLLLSTAAVGSGMGTGQRAGSPAAGPPLQPREPLSYSRLQRKSLAVDFVVPSLFRVYARDLLLPPSSSELKAGRPEARGSLALDCAPLLRLLGPAPGVSWTAGSPAPAEARTLSRVLKGGSVRKLRRAKQLVLELGEEAILEGCVGPPGEAAVGLLQFNLSELFSWWIRQGEGRLRIRLMPEKKASEVGREGRLSAAIRASQPRLLFQIFGTGHSSLESPTNMPSPSPDYFTWNLTWIMKDSFPFLSHRSRYGLECSFDFPCELEYSPPLHDLRNQSWSWRRIPSEEASQMDLLDGPGAERSKEMPRGSFLLLNTSADSKHTILSPWMRSSSEHCTLAVSVHRHLQPSGRYIAQLLPHNEAAREILLMPTPGKHGWTVLQGRIGRPDNPFRVALEYISSGNRSLSAVDFFALKNCSEGTSPGSKMALQSSFTCWNGTVLQLGQACDFHQDCAQGEDESQMCRKLPVGFYCNFEDGFCGWTQGTLSPHTPQWQVRTLKDARFQDHQDHALLLSTTDVPASESATVTSATFPAPIKSSPCELRMSWLIRGVLRGNVSLVLVENKTGKEQGRMVWHVAAYEGLSLWQWMVLPLLDVSDRFWLQMVAWWGQGSRAIVAFDNISISLDCYLTISGEDKILQNTAPKSRNLFERNPNKELKPGENSPRQTPIFDPTVHWLFTTCGASGPHGPTQAQCNNAYQNSNLSVEVGSEGPLKGIQIWKVPATDTYSISGYGAAGGKGGKNTMMRSHGVSVLGIFNLEKDDMLYILVGQQGEDACPSTNQLIQKVCIGENNVIEEEIRVNRSVHEWAGGGGGGGGATYVFKMKDGVPVPLIIAAGGGGRAYGAKTDTFHPERLENNSSVLGLNGNSGAAGGGGGWNDNTSLLWAGKSLQEGATGGHSCPQAMKKWGWETRGGFGGGGGGCSSGGGGGGYIGGNAASNNDPEMDGEDGVSFISPLGILYTPALKVMEGHGEVNIKHYLNCSHCEVDECHMDPESHKVICFCDHGTVLAEDGVSCIVSPTPEPHLPLSLILSVVTSALVAALVLAFSGIMIVYRRKHQELQAMQMELQSPEYKLSKLRTSTIMTDYNPNYCFAGKTSSISDLKEVPRKNITLIRGLGHGAFGEVYEGQVSGMPNDPSPLQVAVKTLPEVCSEQDELDFLMEALIISKFNHQNIVRCIGVSLQSLPRFILLELMAGGDLKSFLRETRPRPSQPSSLAMLDLLHVARDIACGCQYLEENHFIHRDIAARNCLLTCPGPGRVAKIGDFGMARDIYRASYYRKGGCAMLPVKWMPPEAFMEGIFTSKTDTWSFGVLLWEIFSLGYMPYPSKSNQEVLEFVTSGGRMDPPKNCPGPVYRIMTQCWQHQPEDRPNFAIILERIEYCTQDPDVINTALPIEYGPLVEEEEKVPVRPKDPEGVPPLLVSQQAKREEERSPAAPPPLPTTSSGKAAKKPTAAEISVRVPRGPAVEGGHVNMAFSQSNPPSELHKVHGSRNKPTSLWNPTYGSWFTEKPTKKNNPIAKKEPHDRGNLGLEGSCTVPPNVATGRLPGASLLLEPSSLTANMKEVPLFRLRHFPCGNVNYGYQQQGLPLEAATAPGAGHYEDTILKSKNSMNQPGP

> <PDB ID(s) of Target Chain>
2XB7,2XBA,3AOX,5FTO,5FTQ,6E0R,6EBW,6EDL,6MX8,7JY4,7JYR,7JYS,7JYT,7LS0,7MZW,7MZY,7N00,7NX3,7NX4,8ARJ

> <UniProt (SwissProt) Recommended Name of Target Chain>
ALK tyrosine kinase receptor

> <UniProt (SwissProt) Entry Name of Target Chain>
ALK_HUMAN

> <UniProt (SwissProt) Primary ID of Target Chain>
Q9UM73

> <UniProt (SwissProt) Secondary ID(s) of Target Chain>
A6P4T4 A6P4V4 Q4ZFX9 Q53QQ6 Q53RZ4 Q59FI3 Q9Y4K6

> <UniProt (SwissProt) Alternative ID(s) of Target Chain>


> <UniProt (TrEMBL) Submitted Name of Target Chain>


> <UniProt (TrEMBL) Entry Name of Target Chain>


> <UniProt (TrEMBL) Primary ID of Target Chain>


> <UniProt (TrEMBL) Secondary ID(s) of Target Chain>


> <UniProt (TrEMBL) Alternative ID(s) of Target Chain>


$$$$

  SciTegic09261414532D

 29 31  0  0  0  0            999 V2000
   13.9663  -10.8776    0.0000 C   0  0
   14.7004  -11.2291    0.0000 C   0  0
   15.2620  -10.6339    0.0000 N   0  0
   14.8695   -9.9158    0.0000 N   0  0
   14.0654  -10.0673    0.0000 C   0  0
   13.2442  -11.2687    0.0000 C   0  0
   11.8082  -12.0537    0.0000 C   0  0
   11.8273  -11.2356    0.0000 C   0  0
   12.5453  -10.8431    0.0000 C   0  0
   13.2251  -12.0868    0.0000 C   0  0
   12.5071  -12.4793    0.0000 N   0  0
   11.0901  -12.4462    0.0000 N   0  0
   11.1284  -10.8100    0.0000 O   0  0
   11.1477   -9.9917    0.0000 C   0  0  2  0  0  0
   11.8851   -9.6376    0.0000 C   0  0
   10.4450   -9.5724    0.0000 C   0  0
    9.7305   -9.9713    0.0000 C   0  0
    9.0278   -9.5521    0.0000 C   0  0
    9.0396   -8.7338    0.0000 C   0  0
    9.7540   -8.3349    0.0000 C   0  0
   10.4567   -8.7542    0.0000 C   0  0
    8.3133   -9.9510    0.0000 F   0  0
   15.2192   -9.1772    0.0000 C   0  0
   14.8499  -12.0325    0.0000 C   0  0
   11.1703   -8.3558    0.0000 C   0  0
   11.8720   -8.7745    0.0000 O   0  0
   11.1820   -7.5387    0.0000 N   0  0
   10.4802   -7.1200    0.0000 C   0  0
   11.8955   -7.1403    0.0000 C   0  0
  6  1  1  0
  1  2  1  0
  2  3  2  0
  3  4  1  0
  4  5  1  0
  5  1  2  0
  7  8  1  0
  8  9  2  0
  9  6  1  0
  6 10  2  0
 10 11  1  0
  7 11  2  0
  7 12  1  0
 14 15  1  1
 13 14  1  0
 16 17  1  0
 17 18  2  0
 18 19  1  0
 19 20  2  0
 20 21  1  0
 16 21  2  0
 18 22  1  0
 14 16  1  0
  8 13  1  0
  4 23  1  0
  2 24  1  0
 21 25  1  0
 25 26  2  0
 25 27  1  0
 27 28  1  0
 27 29  1  0
M  END
> <From>
www.bindingDB.org

> <BindingDB Reactant_set_id>
50103522

> <Ligand InChI>
InChI=1S/C21H24FN5O2/c1-12-18(11-27(5)25-12)14-8-19(20(23)24-10-14)29-13(2)17-9-15(22)6-7-16(17)21(28)26(3)4/h6-11,13H,1-5H3,(H2,23,24)/t13-/m1/s1

> <Ligand InChI Key>
CZKOZZRYDBLSRF-CYBMUJFWSA-N

> <BindingDB MonomerID>
50018820

> <BindingDB Ligand Name>
CHEMBL3286810

> <Target Name>
ALK tyrosine kinase receptor

> <Target Source Organism According to Curator or DataSource>
Homo sapiens

> <Ki (nM)>
 22

> <IC50 (nM)>


> <Kd (nM)>


> <EC50 (nM)>


> <kon (M-1-s-1)>


> <koff (s-1)>


> <pH>


> <Temp C>


> <Curation/DataSource>
ChEMBL

> <Article DOI>
10.1021/jm500261q

> <BindingDB Entry DOI>
10.7270/Q2K35W68

> <PMID>
24819116

> <PubChem AID>


> <Patent Number>


> <Authors>
Johnson, TW; Richardson, PF; Bailey, S; Brooun, A; Burke, BJ; Collins, MR; Cui, JJ; Deal, JG; Deng, YL; Dinh, D; Engstrom, LD; He, M; Hoffman, J; Hoffman, RL; Huang, Q; Kania, RS; Kath, JC; Lam, H; Lam, JL; Le, PT; Lingardo, L; Liu, W; McTigue, M; Palmer, CL; Sach, NW; Smeal, T; Smith, GL; Stewart, AE; Timofeevski, S; Zhu, H; Zhu, J; Zou, HY; Edwards, MP

> <Date of publication>
6/12/2014

> <Date in BindingDB>
2/11/2015

> <Institution>
Pfizer Inc

> <Link to Ligand in BindingDB>
http://www.bindingdb.org/bind/chemsearch/marvin/MolStructure.jsp?monomerid=50018820

> <Link to Ligand-Target Pair in BindingDB>
http://www.bindingdb.org/jsp/dbsearch/PrimarySearch_ki.jsp?energyterm=kJ/mole&tag=pol&polymerid=5809&target=ALK+tyrosine+kinase+receptor&column=ki&startPg=0&Increment=50&submit=Search

> <Link to Ligand-Target Pair in BindingDB>
http://www.bindingdb.org/jsp/dbsearch/PrimarySearch_ki.jsp?energyterm=kJ/mole&tag=r21&monomerid=50018820&enzyme=ALK+tyrosine+kinase+receptor&column=ki&startPg=0&Increment=50&submit=Search

> <Ligand HET ID in PDB>
6YL

> <PDB ID(s) for Ligand-Target Complex>
5KZ0

> <PubChem CID of Ligand>
90644195

> <PubChem SID of Ligand>
103929873

> <ChEBI ID of Ligand>


> <ChEMBL ID of Ligand>
CHEMBL3286810

> <DrugBank ID of Ligand>


> <IUPHAR_GRAC ID of Ligand>


> <KEGG ID of Ligand>


> <ZINC ID of Ligand>
ZINC33940814

> <Number of Protein Chains in Target (bigger than 1 implies a multichain complex)>
1

> <BindingDB Target Chain Sequence>
MGAIGLLWLLPLLLSTAAVGSGMGTGQRAGSPAAGPPLQPREPLSYSRLQRKSLAVDFVVPSLFRVYARDLLLPPSSSELKAGRPEARGSLALDCAPLLRLLGPAPGVSWTAGSPAPAEARTLSRVLKGGSVRKLRRAKQLVLELGEEAILEGCVGPPGEAAVGLLQFNLSELFSWWIRQGEGRLRIRLMPEKKASEVGREGRLSAAIRASQPRLLFQIFGTGHSSLESPTNMPSPSPDYFTWNLTWIMKDSFPFLSHRSRYGLECSFDFPCELEYSPPLHDLRNQSWSWRRIPSEEASQMDLLDGPGAERSKEMPRGSFLLLNTSADSKHTILSPWMRSSSEHCTLAVSVHRHLQPSGRYIAQLLPHNEAAREILLMPTPGKHGWTVLQGRIGRPDNPFRVALEYISSGNRSLSAVDFFALKNCSEGTSPGSKMALQSSFTCWNGTVLQLGQACDFHQDCAQGEDESQMCRKLPVGFYCNFEDGFCGWTQGTLSPHTPQWQVRTLKDARFQDHQDHALLLSTTDVPASESATVTSATFPAPIKSSPCELRMSWLIRGVLRGNVSLVLVENKTGKEQGRMVWHVAAYEGLSLWQWMVLPLLDVSDRFWLQMVAWWGQGSRAIVAFDNISISLDCYLTISGEDKILQNTAPKSRNLFERNPNKELKPGENSPRQTPIFDPTVHWLFTTCGASGPHGPTQAQCNNAYQNSNLSVEVGSEGPLKGIQIWKVPATDTYSISGYGAAGGKGGKNTMMRSHGVSVLGIFNLEKDDMLYILVGQQGEDACPSTNQLIQKVCIGENNVIEEEIRVNRSVHEWAGGGGGGGGATYVFKMKDGVPVPLIIAAGGGGRAYGAKTDTFHPERLENNSSVLGLNGNSGAAGGGGGWNDNTSLLWAGKSLQEGATGGHSCPQAMKKWGWETRGGFGGGGGGCSSGGGGGGYIGGNAASNNDPEMDGEDGVSFISPLGILYTPALKVMEGHGEVNIKHYLNCSHCEVDECHMDPESHKVICFCDHGTVLAEDGVSCIVSPTPEPHLPLSLILSVVTSALVAALVLAFSGIMIVYRRKHQELQAMQMELQSPEYKLSKLRTSTIMTDYNPNYCFAGKTSSISDLKEVPRKNITLIRGLGHGAFGEVYEGQVSGMPNDPSPLQVAVKTLPEVCSEQDELDFLMEALIISKFNHQNIVRCIGVSLQSLPRFILLELMAGGDLKSFLRETRPRPSQPSSLAMLDLLHVARDIACGCQYLEENHFIHRDIAARNCLLTCPGPGRVAKIGDFGMARDIYRASYYRKGGCAMLPVKWMPPEAFMEGIFTSKTDTWSFGVLLWEIFSLGYMPYPSKSNQEVLEFVTSGGRMDPPKNCPGPVYRIMTQCWQHQPEDRPNFAIILERIEYCTQDPDVINTALPIEYGPLVEEEEKVPVRPKDPEGVPPLLVSQQAKREEERSPAAPPPLPTTSSGKAAKKPTAAEISVRVPRGPAVEGGHVNMAFSQSNPPSELHKVHGSRNKPTSLWNPTYGSWFTEKPTKKNNPIAKKEPHDRGNLGLEGSCTVPPNVATGRLPGASLLLEPSSLTANMKEVPLFRLRHFPCGNVNYGYQQQGLPLEAATAPGAGHYEDTILKSKNSMNQPGP

> <PDB ID(s) of Target Chain>
2XB7,2XBA,3AOX,5FTO,5FTQ,6E0R,6EBW,6EDL,6MX8,7JY4,7JYR,7JYS,7JYT,7LS0,7MZW,7MZY,7N00,7NX3,7NX4,8ARJ

> <UniProt (SwissProt) Recommended Name of Target Chain>
ALK tyrosine kinase receptor

> <UniProt (SwissProt) Entry Name of Target Chain>
ALK_HUMAN

> <UniProt (SwissProt) Primary ID of Target Chain>
Q9UM73

> <UniProt (SwissProt) Secondary ID(s) of Target Chain>
A6P4T4 A6P4V4 Q4ZFX9 Q53QQ6 Q53RZ4 Q59FI3 Q9Y4K6

> <UniProt (SwissProt) Alternative ID(s) of Target Chain>


> <UniProt (TrEMBL) Submitted Name of Target Chain>


> <UniProt (TrEMBL) Entry Name of Target Chain>


> <UniProt (TrEMBL) Primary ID of Target Chain>


> <UniProt (TrEMBL) Secondary ID(s) of Target Chain>


> <UniProt (TrEMBL) Alternative ID(s) of Target Chain>


$$$$

  SciTegic09261414532D

 30 33  0  0  0  0            999 V2000
   15.5386   -5.1488    0.0000 O   0  0
   14.8183   -5.5433    0.0000 C   0  0  1  0  0  0
   14.1133   -5.1148    0.0000 C   0  0
   14.1378   -4.2915    0.0000 C   0  0
   13.4336   -3.8630    0.0000 C   0  0
   12.7123   -4.2576    0.0000 C   0  0
   12.6952   -5.0851    0.0000 C   0  0
   13.4001   -5.5098    0.0000 C   0  0
   14.8637   -3.8992    0.0000 C   0  0
   11.9721   -5.4822    0.0000 F   0  0
   18.4105   -4.3883    0.0000 C   0  0
   16.2248   -5.5766    0.0000 C   0  0
   17.6719   -5.6120    0.0000 C   0  0
   16.2249   -6.4022    0.0000 C   0  0
   16.9702   -5.1828    0.0000 C   0  0
   17.6523   -6.4363    0.0000 C   0  0
   16.9309   -6.8314    0.0000 N   0  0
   15.4994   -6.7973    0.0000 N   0  0
   18.3950   -5.2168    0.0000 C   0  0
   19.1710   -5.4856    0.0000 C   0  0
   19.6711   -4.8299    0.0000 N   0  0
   19.2011   -4.1567    0.0000 N   0  0
   14.3999   -6.2556    0.0000 C   0  0
   15.5793   -4.3397    0.0000 O   0  0
   14.8873   -3.0593    0.0000 N   0  0
   15.6266   -2.6597    0.0000 C   0  0
   14.1716   -2.6188    0.0000 C   0  0
   20.5114   -4.8476    0.0000 C   0  0
   19.4137   -6.2884    0.0000 C   0  0
   19.6562   -7.0930    0.0000 N   0  0
 12  1  1  0
  1  2  1  0
  2  3  1  0
  3  4  2  0
  4  5  1  0
  5  6  2  0
  6  7  1  0
  7  8  2  0
  8  3  1  0
  4  9  1  0
  7 10  1  0
 14 12  1  0
 12 15  2  0
 15 13  1  0
 13 16  2  0
 16 17  1  0
 14 17  2  0
 14 18  1  0
 13 19  1  0
 11 19  1  0
 19 20  2  0
 20 21  1  0
 21 22  1  0
 22 11  2  0
  2 23  1  6
  9 24  2  0
  9 25  1  0
 25 26  1  0
 25 27  1  0
 26 11  1  0
 21 28  1  0
 29 30  3  0
 20 29  1  0
M  END
> <From>
www.bindingDB.org

> <BindingDB Reactant_set_id>
50103600

> <Ligand InChI>
InChI=1S/C21H19FN6O2/c1-11-15-7-13(22)4-5-14(15)21(29)27(2)10-16-19(17(8-23)28(3)26-16)12-6-18(30-11)20(24)25-9-12/h4-7,9,11H,10H2,1-3H3,(H2,24,25)/t11-/m1/s1

> <Ligand InChI Key>
IIXWYSCJSQVBQM-LLVKDONJSA-N

> <BindingDB MonomerID>
50018830

> <BindingDB Ligand Name>
CHEMBL3286830::US10543199, Compound PF-06463922::US10780082, Compound PF-06463922::US11517561, Compound PF-06463922

> <Target Name>
BDNF/NT-3 growth factors receptor

> <Target Source Organism According to Curator or DataSource>
Human

> <Ki (nM)>
 23

> <IC50 (nM)>


> <Kd (nM)>


> <EC50 (nM)>


> <kon (M-1-s-1)>


> <koff (s-1)>


> <pH>


> <Temp C>


> <Curation/DataSource>
ChEMBL

> <Article DOI>
10.1021/jm500261q

> <BindingDB Entry DOI>
10.7270/Q2K35W68

> <PMID>
24819116

> <PubChem AID>


> <Patent Number>


> <Authors>
Johnson, TW; Richardson, PF; Bailey, S; Brooun, A; Burke, BJ; Collins, MR; Cui, JJ; Deal, JG; Deng, YL; Dinh, D; Engstrom, LD; He, M; Hoffman, J; Hoffman, RL; Huang, Q; Kania, RS; Kath, JC; Lam, H; Lam, JL; Le, PT; Lingardo, L; Liu, W; McTigue, M; Palmer, CL; Sach, NW; Smeal, T; Smith, GL; Stewart, AE; Timofeevski, S; Zhu, H; Zhu, J; Zou, HY; Edwards, MP

> <Date of publication>
6/12/2014

> <Date in BindingDB>
2/11/2015

> <Institution>
Pfizer Inc

> <Link to Ligand in BindingDB>
http://www.bindingdb.org/bind/chemsearch/marvin/MolStructure.jsp?monomerid=50018830

> <Link to Ligand-Target Pair in BindingDB>
http://www.bindingdb.org/jsp/dbsearch/PrimarySearch_ki.jsp?energyterm=kJ/mole&tag=pol&polymerid=6476&target=BDNF%2FNT-3+growth+factors+receptor&column=ki&startPg=0&Increment=50&submit=Search

> <Link to Ligand-Target Pair in BindingDB>
http://www.bindingdb.org/jsp/dbsearch/PrimarySearch_ki.jsp?energyterm=kJ/mole&tag=r21&monomerid=50018830&enzyme=BDNF%2FNT-3+growth+factors+receptor&column=ki&startPg=0&Increment=50&submit=Search

> <Ligand HET ID in PDB>
53P

> <PDB ID(s) for Ligand-Target Complex>


> <PubChem CID of Ligand>
71731823

> <PubChem SID of Ligand>
103929883

> <ChEBI ID of Ligand>


> <ChEMBL ID of Ligand>
CHEMBL3286830

> <DrugBank ID of Ligand>


> <IUPHAR_GRAC ID of Ligand>


> <KEGG ID of Ligand>


> <ZINC ID of Ligand>
ZINC33891516

> <Number of Protein Chains in Target (bigger than 1 implies a multichain complex)>
1

> <BindingDB Target Chain Sequence>
MSSWIRWHGPAMARLWGFCWLVVGFWRAAFACPTSCKCSASRIWCSDPSPGIVAFPRLEPNSVDPENITEIFIANQKRLEIINEDDVEAYVGLRNLTIVDSGLKFVAHKAFLKNSNLQHINFTRNKLTSLSRKHFRHLDLSELILVGNPFTCSCDIMWIKTLQEAKSSPDTQDLYCLNESSKNIPLANLQIPNCGLPSANLAAPNLTVEEGKSITLSCSVAGDPVPNMYWDVGNLVSKHMNETSHTQGSLRITNISSDDSGKQISCVAENLVGEDQDSVNLTVHFAPTITFLESPTSDHHWCIPFTVKGNPKPALQWFYNGAILNESKYICTKIHVTNHTEYHGCLQLDNPTHMNNGDYTLIAKNEYGKDEKQISAHFMGWPGIDDGANPNYPDVIYEDYGTAANDIGDTTNRSNEIPSTDVTDKTGREHLSVYAVVVIASVVGFCLLVMLFLLKLARHSKFGMKGPASVISNDDDSASPLHHISNGSNTPSSSEGGPDAVIIGMTKIPVIENPQYFGITNSQLKPDTFVQHIKRHNIVLKRELGEGAFGKVFLAECYNLCPEQDKILVAVKTLKDASDNARKDFHREAELLTNLQHEHIVKFYGVCVEGDPLIMVFEYMKHGDLNKFLRAHGPDAVLMAEGNPPTELTQSQMLHIAQQIAAGMVYLASQHFVHRDLATRNCLVGENLLVKIGDFGMSRDVYSTDYYRVGGHTMLPIRWMPPESIMYRKFTTESDVWSLGVVLWEIFTYGKQPWYQLSNNEVIECITQGRVLQRPRTCPQEVYELMLGCWQREPHMRKNIKGIHTLLQNLAKASPVYLDILG

> <PDB ID(s) of Target Chain>
1WWB,4ASZ,4AT3,4AT4,4AT5,5MO9

> <UniProt (SwissProt) Recommended Name of Target Chain>
BDNF/NT-3 growth factors receptor

> <UniProt (SwissProt) Entry Name of Target Chain>
NTRK2_HUMAN

> <UniProt (SwissProt) Primary ID of Target Chain>
Q16620

> <UniProt (SwissProt) Secondary ID(s) of Target Chain>
B1ANZ4 B4DFV9 Q16675 Q59GJ1 Q8WXJ5 Q8WXJ6 Q8WXJ7

> <UniProt (SwissProt) Alternative ID(s) of Target Chain>


> <UniProt (TrEMBL) Submitted Name of Target Chain>


> <UniProt (TrEMBL) Entry Name of Target Chain>


> <UniProt (TrEMBL) Primary ID of Target Chain>


> <UniProt (TrEMBL) Secondary ID(s) of Target Chain>


> <UniProt (TrEMBL) Alternative ID(s) of Target Chain>


$$$$

  SciTegic09261414532D

 26 29  0  0  0  0            999 V2000
    6.2373  -10.4220    0.0000 C   0  0
    4.7875  -11.2145    0.0000 C   0  0
    4.8069  -10.3886    0.0000 C   0  0
    5.5317   -9.9924    0.0000 C   0  0
    6.2180  -11.2479    0.0000 C   0  0
    5.4932  -11.6441    0.0000 N   0  0
    4.0627  -11.6107    0.0000 N   0  0
    4.1012   -9.9590    0.0000 O   0  0
    6.9780   -9.2013    0.0000 C   0  0
    6.9597  -10.0258    0.0000 C   0  0
    7.7381  -10.2980    0.0000 N   0  0
    8.2376   -9.6417    0.0000 N   0  0
    7.7678   -8.9641    0.0000 C   0  0
    7.9755  -11.0880    0.0000 C   0  0
    3.3774  -10.3546    0.0000 C   0  0
    2.6727   -9.9255    0.0000 C   0  0
    2.6968   -9.1007    0.0000 C   0  0
    1.9930   -8.6716    0.0000 C   0  0
    1.2681   -9.0673    0.0000 C   0  0
    1.2514   -9.8965    0.0000 C   0  0
    1.9559  -10.3217    0.0000 C   0  0
    3.4219   -8.7071    0.0000 O   0  0
    4.1252   -9.1384    0.0000 C   0  0
    4.8503   -8.7450    0.0000 C   0  0
    5.5537   -9.1762    0.0000 C   0  0
    0.5289  -10.2946    0.0000 F   0  0
  2  3  1  0
  3  4  2  0
  4  1  1  0
  1  5  2  0
  5  6  1  0
  2  6  2  0
  2  7  1  0
  3  8  1  0
  1 10  1  0
  9 10  2  0
 10 11  1  0
 11 12  1  0
 12 13  2  0
 13  9  1  0
 11 14  1  0
  8 15  1  0
 15 16  1  0
 16 17  2  0
 17 18  1  0
 18 19  2  0
 19 20  1  0
 20 21  2  0
 21 16  1  0
 17 22  1  0
 22 23  1  0
 23 24  1  0
 24 25  1  0
 25  9  1  0
 20 26  1  0
M  END
> <From>
www.bindingDB.org

> <BindingDB Reactant_set_id>
50103647

> <Ligand InChI>
InChI=1S/C19H19FN4O2/c1-24-18-12(10-23-24)3-2-6-25-16-5-4-15(20)7-14(16)11-26-17-8-13(18)9-22-19(17)21/h4-5,7-10H,2-3,6,11H2,1H3,(H2,21,22)

> <Ligand InChI Key>
LMZGMLCWYMKZIR-UHFFFAOYSA-N

> <BindingDB MonomerID>
50018826

> <BindingDB Ligand Name>
CHEMBL3286816

> <Target Name>
ALK tyrosine kinase receptor

> <Target Source Organism According to Curator or DataSource>
Homo sapiens

> <Ki (nM)>
 29

> <IC50 (nM)>


> <Kd (nM)>


> <EC50 (nM)>


> <kon (M-1-s-1)>


> <koff (s-1)>


> <pH>


> <Temp C>


> <Curation/DataSource>
ChEMBL

> <Article DOI>
10.1021/jm500261q

> <BindingDB Entry DOI>
10.7270/Q2K35W68

> <PMID>
24819116

> <PubChem AID>


> <Patent Number>


> <Authors>
Johnson, TW; Richardson, PF; Bailey, S; Brooun, A; Burke, BJ; Collins, MR; Cui, JJ; Deal, JG; Deng, YL; Dinh, D; Engstrom, LD; He, M; Hoffman, J; Hoffman, RL; Huang, Q; Kania, RS; Kath, JC; Lam, H; Lam, JL; Le, PT; Lingardo, L; Liu, W; McTigue, M; Palmer, CL; Sach, NW; Smeal, T; Smith, GL; Stewart, AE; Timofeevski, S; Zhu, H; Zhu, J; Zou, HY; Edwards, MP

> <Date of publication>
6/12/2014

> <Date in BindingDB>
2/11/2015

> <Institution>
Pfizer Inc

> <Link to Ligand in BindingDB>
http://www.bindingdb.org/bind/chemsearch/marvin/MolStructure.jsp?monomerid=50018826

> <Link to Ligand-Target Pair in BindingDB>
http://www.bindingdb.org/jsp/dbsearch/PrimarySearch_ki.jsp?energyterm=kJ/mole&tag=pol&polymerid=5809&target=ALK+tyrosine+kinase+receptor&column=ki&startPg=0&Increment=50&submit=Search

> <Link to Ligand-Target Pair in BindingDB>
http://www.bindingdb.org/jsp/dbsearch/PrimarySearch_ki.jsp?energyterm=kJ/mole&tag=r21&monomerid=50018826&enzyme=ALK+tyrosine+kinase+receptor&column=ki&startPg=0&Increment=50&submit=Search

> <Ligand HET ID in PDB>


> <PDB ID(s) for Ligand-Target Complex>


> <PubChem CID of Ligand>
71732092

> <PubChem SID of Ligand>
103929879

> <ChEBI ID of Ligand>


> <ChEMBL ID of Ligand>
CHEMBL3286816

> <DrugBank ID of Ligand>


> <IUPHAR_GRAC ID of Ligand>


> <KEGG ID of Ligand>


> <ZINC ID of Ligand>
ZINC33891511

> <Number of Protein Chains in Target (bigger than 1 implies a multichain complex)>
1

> <BindingDB Target Chain Sequence>
MGAIGLLWLLPLLLSTAAVGSGMGTGQRAGSPAAGPPLQPREPLSYSRLQRKSLAVDFVVPSLFRVYARDLLLPPSSSELKAGRPEARGSLALDCAPLLRLLGPAPGVSWTAGSPAPAEARTLSRVLKGGSVRKLRRAKQLVLELGEEAILEGCVGPPGEAAVGLLQFNLSELFSWWIRQGEGRLRIRLMPEKKASEVGREGRLSAAIRASQPRLLFQIFGTGHSSLESPTNMPSPSPDYFTWNLTWIMKDSFPFLSHRSRYGLECSFDFPCELEYSPPLHDLRNQSWSWRRIPSEEASQMDLLDGPGAERSKEMPRGSFLLLNTSADSKHTILSPWMRSSSEHCTLAVSVHRHLQPSGRYIAQLLPHNEAAREILLMPTPGKHGWTVLQGRIGRPDNPFRVALEYISSGNRSLSAVDFFALKNCSEGTSPGSKMALQSSFTCWNGTVLQLGQACDFHQDCAQGEDESQMCRKLPVGFYCNFEDGFCGWTQGTLSPHTPQWQVRTLKDARFQDHQDHALLLSTTDVPASESATVTSATFPAPIKSSPCELRMSWLIRGVLRGNVSLVLVENKTGKEQGRMVWHVAAYEGLSLWQWMVLPLLDVSDRFWLQMVAWWGQGSRAIVAFDNISISLDCYLTISGEDKILQNTAPKSRNLFERNPNKELKPGENSPRQTPIFDPTVHWLFTTCGASGPHGPTQAQCNNAYQNSNLSVEVGSEGPLKGIQIWKVPATDTYSISGYGAAGGKGGKNTMMRSHGVSVLGIFNLEKDDMLYILVGQQGEDACPSTNQLIQKVCIGENNVIEEEIRVNRSVHEWAGGGGGGGGATYVFKMKDGVPVPLIIAAGGGGRAYGAKTDTFHPERLENNSSVLGLNGNSGAAGGGGGWNDNTSLLWAGKSLQEGATGGHSCPQAMKKWGWETRGGFGGGGGGCSSGGGGGGYIGGNAASNNDPEMDGEDGVSFISPLGILYTPALKVMEGHGEVNIKHYLNCSHCEVDECHMDPESHKVICFCDHGTVLAEDGVSCIVSPTPEPHLPLSLILSVVTSALVAALVLAFSGIMIVYRRKHQELQAMQMELQSPEYKLSKLRTSTIMTDYNPNYCFAGKTSSISDLKEVPRKNITLIRGLGHGAFGEVYEGQVSGMPNDPSPLQVAVKTLPEVCSEQDELDFLMEALIISKFNHQNIVRCIGVSLQSLPRFILLELMAGGDLKSFLRETRPRPSQPSSLAMLDLLHVARDIACGCQYLEENHFIHRDIAARNCLLTCPGPGRVAKIGDFGMARDIYRASYYRKGGCAMLPVKWMPPEAFMEGIFTSKTDTWSFGVLLWEIFSLGYMPYPSKSNQEVLEFVTSGGRMDPPKNCPGPVYRIMTQCWQHQPEDRPNFAIILERIEYCTQDPDVINTALPIEYGPLVEEEEKVPVRPKDPEGVPPLLVSQQAKREEERSPAAPPPLPTTSSGKAAKKPTAAEISVRVPRGPAVEGGHVNMAFSQSNPPSELHKVHGSRNKPTSLWNPTYGSWFTEKPTKKNNPIAKKEPHDRGNLGLEGSCTVPPNVATGRLPGASLLLEPSSLTANMKEVPLFRLRHFPCGNVNYGYQQQGLPLEAATAPGAGHYEDTILKSKNSMNQPGP

> <PDB ID(s) of Target Chain>
2XB7,2XBA,3AOX,5FTO,5FTQ,6E0R,6EBW,6EDL,6MX8,7JY4,7JYR,7JYS,7JYT,7LS0,7MZW,7MZY,7N00,7NX3,7NX4,8ARJ

> <UniProt (SwissProt) Recommended Name of Target Chain>
ALK tyrosine kinase receptor

> <UniProt (SwissProt) Entry Name of Target Chain>
ALK_HUMAN

> <UniProt (SwissProt) Primary ID of Target Chain>
Q9UM73

> <UniProt (SwissProt) Secondary ID(s) of Target Chain>
A6P4T4 A6P4V4 Q4ZFX9 Q53QQ6 Q53RZ4 Q59FI3 Q9Y4K6

> <UniProt (SwissProt) Alternative ID(s) of Target Chain>


> <UniProt (TrEMBL) Submitted Name of Target Chain>


> <UniProt (TrEMBL) Entry Name of Target Chain>


> <UniProt (TrEMBL) Primary ID of Target Chain>


> <UniProt (TrEMBL) Secondary ID(s) of Target Chain>


> <UniProt (TrEMBL) Alternative ID(s) of Target Chain>


$$$$

  SciTegic09261414532D

 28 30  0  0  0  0            999 V2000
    5.9843  -11.3234    0.0000 C   0  0
    6.7184  -11.6748    0.0000 C   0  0
    7.2800  -11.0797    0.0000 N   0  0
    6.8875  -10.3616    0.0000 N   0  0
    6.0833  -10.5131    0.0000 C   0  0
    5.2622  -11.7145    0.0000 C   0  0
    3.8261  -12.4994    0.0000 C   0  0
    3.8452  -11.6814    0.0000 C   0  0
    4.5632  -11.2889    0.0000 C   0  0
    5.2430  -12.5325    0.0000 C   0  0
    4.5250  -12.9250    0.0000 N   0  0
    3.1081  -12.8919    0.0000 N   0  0
    3.1463  -11.2558    0.0000 O   0  0
    3.1657  -10.4374    0.0000 C   0  0  2  0  0  0
    3.9030  -10.0833    0.0000 C   0  0
    2.4629  -10.0182    0.0000 C   0  0
    1.7485  -10.4171    0.0000 C   0  0
    1.0457   -9.9978    0.0000 C   0  0
    1.0575   -9.1796    0.0000 C   0  0
    1.7720   -8.7807    0.0000 C   0  0
    2.4747   -9.1999    0.0000 C   0  0
    0.3313  -10.3967    0.0000 F   0  0
    7.2371   -9.6230    0.0000 C   0  0
    6.8678  -12.4782    0.0000 C   0  0
    3.1882   -8.8016    0.0000 C   0  0
    3.8900   -9.2203    0.0000 O   0  0
    3.1999   -7.9844    0.0000 N   0  0
    2.4982   -7.5657    0.0000 C   0  0
  6  1  1  0
  1  2  1  0
  2  3  2  0
  3  4  1  0
  4  5  1  0
  5  1  2  0
  7  8  1  0
  8  9  2  0
  9  6  1  0
  6 10  2  0
 10 11  1  0
  7 11  2  0
  7 12  1  0
 14 15  1  1
 13 14  1  0
 16 17  1  0
 17 18  2  0
 18 19  1  0
 19 20  2  0
 20 21  1  0
 16 21  2  0
 18 22  1  0
 14 16  1  0
  8 13  1  0
  4 23  1  0
  2 24  1  0
 21 25  1  0
 25 26  2  0
 25 27  1  0
 27 28  1  0
M  END
> <From>
www.bindingDB.org

> <BindingDB Reactant_set_id>
50103567

> <Ligand InChI>
InChI=1S/C20H22FN5O2/c1-11-17(10-26(4)25-11)13-7-18(19(22)24-9-13)28-12(2)16-8-14(21)5-6-15(16)20(27)23-3/h5-10,12H,1-4H3,(H2,22,24)(H,23,27)/t12-/m1/s1

> <Ligand InChI Key>
WKWCRLSGXLINPN-GFCCVEGCSA-N

> <BindingDB MonomerID>
50018819

> <BindingDB Ligand Name>
CHEMBL3286809

> <Target Name>
ALK tyrosine kinase receptor

> <Target Source Organism According to Curator or DataSource>
Homo sapiens

> <Ki (nM)>
 35

> <IC50 (nM)>


> <Kd (nM)>


> <EC50 (nM)>


> <kon (M-1-s-1)>


> <koff (s-1)>


> <pH>


> <Temp C>


> <Curation/DataSource>
ChEMBL

> <Article DOI>
10.1021/jm500261q

> <BindingDB Entry DOI>
10.7270/Q2K35W68

> <PMID>
24819116

> <PubChem AID>


> <Patent Number>


> <Authors>
Johnson, TW; Richardson, PF; Bailey, S; Brooun, A; Burke, BJ; Collins, MR; Cui, JJ; Deal, JG; Deng, YL; Dinh, D; Engstrom, LD; He, M; Hoffman, J; Hoffman, RL; Huang, Q; Kania, RS; Kath, JC; Lam, H; Lam, JL; Le, PT; Lingardo, L; Liu, W; McTigue, M; Palmer, CL; Sach, NW; Smeal, T; Smith, GL; Stewart, AE; Timofeevski, S; Zhu, H; Zhu, J; Zou, HY; Edwards, MP

> <Date of publication>
6/12/2014

> <Date in BindingDB>
2/11/2015

> <Institution>
Pfizer Inc

> <Link to Ligand in BindingDB>
http://www.bindingdb.org/bind/chemsearch/marvin/MolStructure.jsp?monomerid=50018819

> <Link to Ligand-Target Pair in BindingDB>
http://www.bindingdb.org/jsp/dbsearch/PrimarySearch_ki.jsp?energyterm=kJ/mole&tag=pol&polymerid=5809&target=ALK+tyrosine+kinase+receptor&column=ki&startPg=0&Increment=50&submit=Search

> <Link to Ligand-Target Pair in BindingDB>
http://www.bindingdb.org/jsp/dbsearch/PrimarySearch_ki.jsp?energyterm=kJ/mole&tag=r21&monomerid=50018819&enzyme=ALK+tyrosine+kinase+receptor&column=ki&startPg=0&Increment=50&submit=Search

> <Ligand HET ID in PDB>


> <PDB ID(s) for Ligand-Target Complex>


> <PubChem CID of Ligand>
90644194

> <PubChem SID of Ligand>
103929872

> <ChEBI ID of Ligand>


> <ChEMBL ID of Ligand>
CHEMBL3286809

> <DrugBank ID of Ligand>


> <IUPHAR_GRAC ID of Ligand>


> <KEGG ID of Ligand>


> <ZINC ID of Ligand>
ZINC13364392

> <Number of Protein Chains in Target (bigger than 1 implies a multichain complex)>
1

> <BindingDB Target Chain Sequence>
MGAIGLLWLLPLLLSTAAVGSGMGTGQRAGSPAAGPPLQPREPLSYSRLQRKSLAVDFVVPSLFRVYARDLLLPPSSSELKAGRPEARGSLALDCAPLLRLLGPAPGVSWTAGSPAPAEARTLSRVLKGGSVRKLRRAKQLVLELGEEAILEGCVGPPGEAAVGLLQFNLSELFSWWIRQGEGRLRIRLMPEKKASEVGREGRLSAAIRASQPRLLFQIFGTGHSSLESPTNMPSPSPDYFTWNLTWIMKDSFPFLSHRSRYGLECSFDFPCELEYSPPLHDLRNQSWSWRRIPSEEASQMDLLDGPGAERSKEMPRGSFLLLNTSADSKHTILSPWMRSSSEHCTLAVSVHRHLQPSGRYIAQLLPHNEAAREILLMPTPGKHGWTVLQGRIGRPDNPFRVALEYISSGNRSLSAVDFFALKNCSEGTSPGSKMALQSSFTCWNGTVLQLGQACDFHQDCAQGEDESQMCRKLPVGFYCNFEDGFCGWTQGTLSPHTPQWQVRTLKDARFQDHQDHALLLSTTDVPASESATVTSATFPAPIKSSPCELRMSWLIRGVLRGNVSLVLVENKTGKEQGRMVWHVAAYEGLSLWQWMVLPLLDVSDRFWLQMVAWWGQGSRAIVAFDNISISLDCYLTISGEDKILQNTAPKSRNLFERNPNKELKPGENSPRQTPIFDPTVHWLFTTCGASGPHGPTQAQCNNAYQNSNLSVEVGSEGPLKGIQIWKVPATDTYSISGYGAAGGKGGKNTMMRSHGVSVLGIFNLEKDDMLYILVGQQGEDACPSTNQLIQKVCIGENNVIEEEIRVNRSVHEWAGGGGGGGGATYVFKMKDGVPVPLIIAAGGGGRAYGAKTDTFHPERLENNSSVLGLNGNSGAAGGGGGWNDNTSLLWAGKSLQEGATGGHSCPQAMKKWGWETRGGFGGGGGGCSSGGGGGGYIGGNAASNNDPEMDGEDGVSFISPLGILYTPALKVMEGHGEVNIKHYLNCSHCEVDECHMDPESHKVICFCDHGTVLAEDGVSCIVSPTPEPHLPLSLILSVVTSALVAALVLAFSGIMIVYRRKHQELQAMQMELQSPEYKLSKLRTSTIMTDYNPNYCFAGKTSSISDLKEVPRKNITLIRGLGHGAFGEVYEGQVSGMPNDPSPLQVAVKTLPEVCSEQDELDFLMEALIISKFNHQNIVRCIGVSLQSLPRFILLELMAGGDLKSFLRETRPRPSQPSSLAMLDLLHVARDIACGCQYLEENHFIHRDIAARNCLLTCPGPGRVAKIGDFGMARDIYRASYYRKGGCAMLPVKWMPPEAFMEGIFTSKTDTWSFGVLLWEIFSLGYMPYPSKSNQEVLEFVTSGGRMDPPKNCPGPVYRIMTQCWQHQPEDRPNFAIILERIEYCTQDPDVINTALPIEYGPLVEEEEKVPVRPKDPEGVPPLLVSQQAKREEERSPAAPPPLPTTSSGKAAKKPTAAEISVRVPRGPAVEGGHVNMAFSQSNPPSELHKVHGSRNKPTSLWNPTYGSWFTEKPTKKNNPIAKKEPHDRGNLGLEGSCTVPPNVATGRLPGASLLLEPSSLTANMKEVPLFRLRHFPCGNVNYGYQQQGLPLEAATAPGAGHYEDTILKSKNSMNQPGP

> <PDB ID(s) of Target Chain>
2XB7,2XBA,3AOX,5FTO,5FTQ,6E0R,6EBW,6EDL,6MX8,7JY4,7JYR,7JYS,7JYT,7LS0,7MZW,7MZY,7N00,7NX3,7NX4,8ARJ

> <UniProt (SwissProt) Recommended Name of Target Chain>
ALK tyrosine kinase receptor

> <UniProt (SwissProt) Entry Name of Target Chain>
ALK_HUMAN

> <UniProt (SwissProt) Primary ID of Target Chain>
Q9UM73

> <UniProt (SwissProt) Secondary ID(s) of Target Chain>
A6P4T4 A6P4V4 Q4ZFX9 Q53QQ6 Q53RZ4 Q59FI3 Q9Y4K6

> <UniProt (SwissProt) Alternative ID(s) of Target Chain>


> <UniProt (TrEMBL) Submitted Name of Target Chain>


> <UniProt (TrEMBL) Entry Name of Target Chain>


> <UniProt (TrEMBL) Primary ID of Target Chain>


> <UniProt (TrEMBL) Secondary ID(s) of Target Chain>


> <UniProt (TrEMBL) Alternative ID(s) of Target Chain>


$$$$

  SciTegic09261414532D

 27 30  0  0  0  0            999 V2000
    6.7331  -10.3013    0.0000 C   0  0
    5.2834  -11.0938    0.0000 C   0  0
    5.3027  -10.2678    0.0000 C   0  0
    6.0276   -9.8716    0.0000 C   0  0
    6.7139  -11.1272    0.0000 C   0  0
    5.9890  -11.5234    0.0000 N   0  0
    4.5585  -11.4899    0.0000 N   0  0
    4.5972   -9.8382    0.0000 O   0  0
    7.4556   -9.9050    0.0000 C   0  0
    8.2340  -10.1772    0.0000 N   0  0
    8.7334   -9.5209    0.0000 N   0  0
    8.2636   -8.8433    0.0000 C   0  0
    8.4715  -10.9673    0.0000 C   0  0
    3.8732  -10.2338    0.0000 C   0  0
    3.1685   -9.8048    0.0000 C   0  0
    3.1927   -8.9799    0.0000 C   0  0
    2.4888   -8.5508    0.0000 C   0  0
    1.7640   -8.9466    0.0000 C   0  0
    1.7472   -9.7757    0.0000 C   0  0
    2.4517  -10.2009    0.0000 C   0  0
    3.9177   -8.5864    0.0000 O   0  0
    4.6211   -9.0176    0.0000 C   0  0
    5.3461   -8.6242    0.0000 C   0  0
    6.0495   -9.0554    0.0000 C   0  0
    1.0247  -10.1740    0.0000 F   0  0
    6.7746   -8.6620    0.0000 C   0  0
    7.4779   -9.0932    0.0000 C   0  0
  2  3  1  0
  3  4  2  0
  4  1  1  0
  1  5  2  0
  5  6  1  0
  2  6  2  0
  2  7  1  0
  3  8  1  0
  1  9  1  0
 27  9  2  0
  9 10  1  0
 10 11  1  0
 11 12  2  0
 12 27  1  0
 10 13  1  0
  8 14  1  0
 14 15  1  0
 15 16  2  0
 16 17  1  0
 17 18  2  0
 18 19  1  0
 19 20  2  0
 20 15  1  0
 16 21  1  0
 21 22  1  0
 22 23  1  0
 23 24  1  0
 19 25  1  0
 24 26  1  0
 26 27  1  0
M  END
> <From>
www.bindingDB.org

> <BindingDB Reactant_set_id>
50103648

> <Ligand InChI>
InChI=1S/C20H21FN4O2/c1-25-19-13(11-24-25)4-2-3-7-26-17-6-5-16(21)8-15(17)12-27-18-9-14(19)10-23-20(18)22/h5-6,8-11H,2-4,7,12H2,1H3,(H2,22,23)

> <Ligand InChI Key>
XZDITQKBHNRUDE-UHFFFAOYSA-N

> <BindingDB MonomerID>
50018827

> <BindingDB Ligand Name>
CHEMBL3286817

> <Target Name>
ALK tyrosine kinase receptor

> <Target Source Organism According to Curator or DataSource>
Homo sapiens

> <Ki (nM)>
 36

> <IC50 (nM)>


> <Kd (nM)>


> <EC50 (nM)>


> <kon (M-1-s-1)>


> <koff (s-1)>


> <pH>


> <Temp C>


> <Curation/DataSource>
ChEMBL

> <Article DOI>
10.1021/jm500261q

> <BindingDB Entry DOI>
10.7270/Q2K35W68

> <PMID>
24819116

> <PubChem AID>


> <Patent Number>


> <Authors>
Johnson, TW; Richardson, PF; Bailey, S; Brooun, A; Burke, BJ; Collins, MR; Cui, JJ; Deal, JG; Deng, YL; Dinh, D; Engstrom, LD; He, M; Hoffman, J; Hoffman, RL; Huang, Q; Kania, RS; Kath, JC; Lam, H; Lam, JL; Le, PT; Lingardo, L; Liu, W; McTigue, M; Palmer, CL; Sach, NW; Smeal, T; Smith, GL; Stewart, AE; Timofeevski, S; Zhu, H; Zhu, J; Zou, HY; Edwards, MP

> <Date of publication>
6/12/2014

> <Date in BindingDB>
2/11/2015

> <Institution>
Pfizer Inc

> <Link to Ligand in BindingDB>
http://www.bindingdb.org/bind/chemsearch/marvin/MolStructure.jsp?monomerid=50018827

> <Link to Ligand-Target Pair in BindingDB>
http://www.bindingdb.org/jsp/dbsearch/PrimarySearch_ki.jsp?energyterm=kJ/mole&tag=pol&polymerid=5809&target=ALK+tyrosine+kinase+receptor&column=ki&startPg=0&Increment=50&submit=Search

> <Link to Ligand-Target Pair in BindingDB>
http://www.bindingdb.org/jsp/dbsearch/PrimarySearch_ki.jsp?energyterm=kJ/mole&tag=r21&monomerid=50018827&enzyme=ALK+tyrosine+kinase+receptor&column=ki&startPg=0&Increment=50&submit=Search

> <Ligand HET ID in PDB>


> <PDB ID(s) for Ligand-Target Complex>


> <PubChem CID of Ligand>
71732097

> <PubChem SID of Ligand>
103929880

> <ChEBI ID of Ligand>


> <ChEMBL ID of Ligand>
CHEMBL3286817

> <DrugBank ID of Ligand>


> <IUPHAR_GRAC ID of Ligand>


> <KEGG ID of Ligand>


> <ZINC ID of Ligand>
ZINC33891520

> <Number of Protein Chains in Target (bigger than 1 implies a multichain complex)>
1

> <BindingDB Target Chain Sequence>
MGAIGLLWLLPLLLSTAAVGSGMGTGQRAGSPAAGPPLQPREPLSYSRLQRKSLAVDFVVPSLFRVYARDLLLPPSSSELKAGRPEARGSLALDCAPLLRLLGPAPGVSWTAGSPAPAEARTLSRVLKGGSVRKLRRAKQLVLELGEEAILEGCVGPPGEAAVGLLQFNLSELFSWWIRQGEGRLRIRLMPEKKASEVGREGRLSAAIRASQPRLLFQIFGTGHSSLESPTNMPSPSPDYFTWNLTWIMKDSFPFLSHRSRYGLECSFDFPCELEYSPPLHDLRNQSWSWRRIPSEEASQMDLLDGPGAERSKEMPRGSFLLLNTSADSKHTILSPWMRSSSEHCTLAVSVHRHLQPSGRYIAQLLPHNEAAREILLMPTPGKHGWTVLQGRIGRPDNPFRVALEYISSGNRSLSAVDFFALKNCSEGTSPGSKMALQSSFTCWNGTVLQLGQACDFHQDCAQGEDESQMCRKLPVGFYCNFEDGFCGWTQGTLSPHTPQWQVRTLKDARFQDHQDHALLLSTTDVPASESATVTSATFPAPIKSSPCELRMSWLIRGVLRGNVSLVLVENKTGKEQGRMVWHVAAYEGLSLWQWMVLPLLDVSDRFWLQMVAWWGQGSRAIVAFDNISISLDCYLTISGEDKILQNTAPKSRNLFERNPNKELKPGENSPRQTPIFDPTVHWLFTTCGASGPHGPTQAQCNNAYQNSNLSVEVGSEGPLKGIQIWKVPATDTYSISGYGAAGGKGGKNTMMRSHGVSVLGIFNLEKDDMLYILVGQQGEDACPSTNQLIQKVCIGENNVIEEEIRVNRSVHEWAGGGGGGGGATYVFKMKDGVPVPLIIAAGGGGRAYGAKTDTFHPERLENNSSVLGLNGNSGAAGGGGGWNDNTSLLWAGKSLQEGATGGHSCPQAMKKWGWETRGGFGGGGGGCSSGGGGGGYIGGNAASNNDPEMDGEDGVSFISPLGILYTPALKVMEGHGEVNIKHYLNCSHCEVDECHMDPESHKVICFCDHGTVLAEDGVSCIVSPTPEPHLPLSLILSVVTSALVAALVLAFSGIMIVYRRKHQELQAMQMELQSPEYKLSKLRTSTIMTDYNPNYCFAGKTSSISDLKEVPRKNITLIRGLGHGAFGEVYEGQVSGMPNDPSPLQVAVKTLPEVCSEQDELDFLMEALIISKFNHQNIVRCIGVSLQSLPRFILLELMAGGDLKSFLRETRPRPSQPSSLAMLDLLHVARDIACGCQYLEENHFIHRDIAARNCLLTCPGPGRVAKIGDFGMARDIYRASYYRKGGCAMLPVKWMPPEAFMEGIFTSKTDTWSFGVLLWEIFSLGYMPYPSKSNQEVLEFVTSGGRMDPPKNCPGPVYRIMTQCWQHQPEDRPNFAIILERIEYCTQDPDVINTALPIEYGPLVEEEEKVPVRPKDPEGVPPLLVSQQAKREEERSPAAPPPLPTTSSGKAAKKPTAAEISVRVPRGPAVEGGHVNMAFSQSNPPSELHKVHGSRNKPTSLWNPTYGSWFTEKPTKKNNPIAKKEPHDRGNLGLEGSCTVPPNVATGRLPGASLLLEPSSLTANMKEVPLFRLRHFPCGNVNYGYQQQGLPLEAATAPGAGHYEDTILKSKNSMNQPGP

> <PDB ID(s) of Target Chain>
2XB7,2XBA,3AOX,5FTO,5FTQ,6E0R,6EBW,6EDL,6MX8,7JY4,7JYR,7JYS,7JYT,7LS0,7MZW,7MZY,7N00,7NX3,7NX4,8ARJ

> <UniProt (SwissProt) Recommended Name of Target Chain>
ALK tyrosine kinase receptor

> <UniProt (SwissProt) Entry Name of Target Chain>
ALK_HUMAN

> <UniProt (SwissProt) Primary ID of Target Chain>
Q9UM73

> <UniProt (SwissProt) Secondary ID(s) of Target Chain>
A6P4T4 A6P4V4 Q4ZFX9 Q53QQ6 Q53RZ4 Q59FI3 Q9Y4K6

> <UniProt (SwissProt) Alternative ID(s) of Target Chain>


> <UniProt (TrEMBL) Submitted Name of Target Chain>


> <UniProt (TrEMBL) Entry Name of Target Chain>


> <UniProt (TrEMBL) Primary ID of Target Chain>


> <UniProt (TrEMBL) Secondary ID(s) of Target Chain>


> <UniProt (TrEMBL) Alternative ID(s) of Target Chain>


$$$$

  SciTegic09261414532D

 25 27  0  0  0  0            999 V2000
   13.1536   -5.7019    0.0000 C   0  0
   13.1727   -4.8838    0.0000 C   0  0
   13.8908   -4.4913    0.0000 C   0  0
   14.5897   -4.9169    0.0000 C   0  0
   14.5706   -5.7350    0.0000 C   0  0
   13.8525   -6.1275    0.0000 N   0  0
   12.4356   -6.0944    0.0000 N   0  0
   15.3077   -4.5244    0.0000 C   0  0
   12.4738   -4.4582    0.0000 O   0  0
   12.4932   -3.6399    0.0000 C   0  0  2  0  0  0
   13.2305   -3.2858    0.0000 C   0  0
   11.7905   -3.2206    0.0000 C   0  0
   11.0760   -3.6195    0.0000 C   0  0
   10.3733   -3.2003    0.0000 C   0  0
   10.3850   -2.3820    0.0000 C   0  0
   11.0995   -1.9831    0.0000 C   0  0
   11.8022   -2.4024    0.0000 C   0  0
    9.6588   -3.5992    0.0000 F   0  0
   12.5157   -2.0040    0.0000 O   0  0
   12.5275   -1.1869    0.0000 C   0  0
   16.0418   -4.8759    0.0000 N   0  0
   16.6034   -4.2807    0.0000 N   0  0
   16.2109   -3.5626    0.0000 N   0  0
   15.4068   -3.7141    0.0000 C   0  0
   16.1913   -5.6793    0.0000 C   0  0
  1  2  1  0
  2  3  2  0
  3  4  1  0
  4  5  2  0
  5  6  1  0
  1  6  2  0
  1  7  1  0
  4  8  1  0
 10 11  1  1
  9 10  1  0
 12 13  1  0
 13 14  2  0
 14 15  1  0
 15 16  2  0
 16 17  1  0
 12 17  2  0
 14 18  1  0
 10 12  1  0
  2  9  1  0
 17 19  1  0
 19 20  1  0
  8 21  1  0
 21 22  1  0
 22 23  2  0
 23 24  1  0
 24  8  2  0
 21 25  1  0
M  END
> <From>
www.bindingDB.org

> <BindingDB Reactant_set_id>
50103564

> <Ligand InChI>
InChI=1S/C17H18FN5O2/c1-10(13-7-12(18)4-5-15(13)24-3)25-16-6-11(8-20-17(16)19)14-9-21-22-23(14)2/h4-10H,1-3H3,(H2,19,20)/t10-/m1/s1

> <Ligand InChI Key>
GXUFIECYEKHMLD-SNVBAGLBSA-N

> <BindingDB MonomerID>
50018816

> <BindingDB Ligand Name>
CHEMBL3286808

> <Target Name>
ALK tyrosine kinase receptor

> <Target Source Organism According to Curator or DataSource>
Homo sapiens

> <Ki (nM)>
 38

> <IC50 (nM)>


> <Kd (nM)>


> <EC50 (nM)>


> <kon (M-1-s-1)>


> <koff (s-1)>


> <pH>


> <Temp C>


> <Curation/DataSource>
ChEMBL

> <Article DOI>
10.1021/jm500261q

> <BindingDB Entry DOI>
10.7270/Q2K35W68

> <PMID>
24819116

> <PubChem AID>


> <Patent Number>


> <Authors>
Johnson, TW; Richardson, PF; Bailey, S; Brooun, A; Burke, BJ; Collins, MR; Cui, JJ; Deal, JG; Deng, YL; Dinh, D; Engstrom, LD; He, M; Hoffman, J; Hoffman, RL; Huang, Q; Kania, RS; Kath, JC; Lam, H; Lam, JL; Le, PT; Lingardo, L; Liu, W; McTigue, M; Palmer, CL; Sach, NW; Smeal, T; Smith, GL; Stewart, AE; Timofeevski, S; Zhu, H; Zhu, J; Zou, HY; Edwards, MP

> <Date of publication>
6/12/2014

> <Date in BindingDB>
2/11/2015

> <Institution>
Pfizer Inc

> <Link to Ligand in BindingDB>
http://www.bindingdb.org/bind/chemsearch/marvin/MolStructure.jsp?monomerid=50018816

> <Link to Ligand-Target Pair in BindingDB>
http://www.bindingdb.org/jsp/dbsearch/PrimarySearch_ki.jsp?energyterm=kJ/mole&tag=pol&polymerid=5809&target=ALK+tyrosine+kinase+receptor&column=ki&startPg=0&Increment=50&submit=Search

> <Link to Ligand-Target Pair in BindingDB>
http://www.bindingdb.org/jsp/dbsearch/PrimarySearch_ki.jsp?energyterm=kJ/mole&tag=r21&monomerid=50018816&enzyme=ALK+tyrosine+kinase+receptor&column=ki&startPg=0&Increment=50&submit=Search

> <Ligand HET ID in PDB>
3U9

> <PDB ID(s) for Ligand-Target Complex>
4CNH

> <PubChem CID of Ligand>
67467779

> <PubChem SID of Ligand>
103929869

> <ChEBI ID of Ligand>


> <ChEMBL ID of Ligand>
CHEMBL3286808

> <DrugBank ID of Ligand>


> <IUPHAR_GRAC ID of Ligand>


> <KEGG ID of Ligand>


> <ZINC ID of Ligand>
ZINC36080037

> <Number of Protein Chains in Target (bigger than 1 implies a multichain complex)>
1

> <BindingDB Target Chain Sequence>
MGAIGLLWLLPLLLSTAAVGSGMGTGQRAGSPAAGPPLQPREPLSYSRLQRKSLAVDFVVPSLFRVYARDLLLPPSSSELKAGRPEARGSLALDCAPLLRLLGPAPGVSWTAGSPAPAEARTLSRVLKGGSVRKLRRAKQLVLELGEEAILEGCVGPPGEAAVGLLQFNLSELFSWWIRQGEGRLRIRLMPEKKASEVGREGRLSAAIRASQPRLLFQIFGTGHSSLESPTNMPSPSPDYFTWNLTWIMKDSFPFLSHRSRYGLECSFDFPCELEYSPPLHDLRNQSWSWRRIPSEEASQMDLLDGPGAERSKEMPRGSFLLLNTSADSKHTILSPWMRSSSEHCTLAVSVHRHLQPSGRYIAQLLPHNEAAREILLMPTPGKHGWTVLQGRIGRPDNPFRVALEYISSGNRSLSAVDFFALKNCSEGTSPGSKMALQSSFTCWNGTVLQLGQACDFHQDCAQGEDESQMCRKLPVGFYCNFEDGFCGWTQGTLSPHTPQWQVRTLKDARFQDHQDHALLLSTTDVPASESATVTSATFPAPIKSSPCELRMSWLIRGVLRGNVSLVLVENKTGKEQGRMVWHVAAYEGLSLWQWMVLPLLDVSDRFWLQMVAWWGQGSRAIVAFDNISISLDCYLTISGEDKILQNTAPKSRNLFERNPNKELKPGENSPRQTPIFDPTVHWLFTTCGASGPHGPTQAQCNNAYQNSNLSVEVGSEGPLKGIQIWKVPATDTYSISGYGAAGGKGGKNTMMRSHGVSVLGIFNLEKDDMLYILVGQQGEDACPSTNQLIQKVCIGENNVIEEEIRVNRSVHEWAGGGGGGGGATYVFKMKDGVPVPLIIAAGGGGRAYGAKTDTFHPERLENNSSVLGLNGNSGAAGGGGGWNDNTSLLWAGKSLQEGATGGHSCPQAMKKWGWETRGGFGGGGGGCSSGGGGGGYIGGNAASNNDPEMDGEDGVSFISPLGILYTPALKVMEGHGEVNIKHYLNCSHCEVDECHMDPESHKVICFCDHGTVLAEDGVSCIVSPTPEPHLPLSLILSVVTSALVAALVLAFSGIMIVYRRKHQELQAMQMELQSPEYKLSKLRTSTIMTDYNPNYCFAGKTSSISDLKEVPRKNITLIRGLGHGAFGEVYEGQVSGMPNDPSPLQVAVKTLPEVCSEQDELDFLMEALIISKFNHQNIVRCIGVSLQSLPRFILLELMAGGDLKSFLRETRPRPSQPSSLAMLDLLHVARDIACGCQYLEENHFIHRDIAARNCLLTCPGPGRVAKIGDFGMARDIYRASYYRKGGCAMLPVKWMPPEAFMEGIFTSKTDTWSFGVLLWEIFSLGYMPYPSKSNQEVLEFVTSGGRMDPPKNCPGPVYRIMTQCWQHQPEDRPNFAIILERIEYCTQDPDVINTALPIEYGPLVEEEEKVPVRPKDPEGVPPLLVSQQAKREEERSPAAPPPLPTTSSGKAAKKPTAAEISVRVPRGPAVEGGHVNMAFSQSNPPSELHKVHGSRNKPTSLWNPTYGSWFTEKPTKKNNPIAKKEPHDRGNLGLEGSCTVPPNVATGRLPGASLLLEPSSLTANMKEVPLFRLRHFPCGNVNYGYQQQGLPLEAATAPGAGHYEDTILKSKNSMNQPGP

> <PDB ID(s) of Target Chain>
2XB7,2XBA,3AOX,5FTO,5FTQ,6E0R,6EBW,6EDL,6MX8,7JY4,7JYR,7JYS,7JYT,7LS0,7MZW,7MZY,7N00,7NX3,7NX4,8ARJ

> <UniProt (SwissProt) Recommended Name of Target Chain>
ALK tyrosine kinase receptor

> <UniProt (SwissProt) Entry Name of Target Chain>
ALK_HUMAN

> <UniProt (SwissProt) Primary ID of Target Chain>
Q9UM73

> <UniProt (SwissProt) Secondary ID(s) of Target Chain>
A6P4T4 A6P4V4 Q4ZFX9 Q53QQ6 Q53RZ4 Q59FI3 Q9Y4K6

> <UniProt (SwissProt) Alternative ID(s) of Target Chain>


> <UniProt (TrEMBL) Submitted Name of Target Chain>


> <UniProt (TrEMBL) Entry Name of Target Chain>


> <UniProt (TrEMBL) Primary ID of Target Chain>


> <UniProt (TrEMBL) Secondary ID(s) of Target Chain>


> <UniProt (TrEMBL) Alternative ID(s) of Target Chain>


$$$$

  SciTegic09261414532D

 29 32  0  0  0  0            999 V2000
   13.9232   -4.3540    0.0000 O   0  0
   13.2022   -4.7489    0.0000 C   0  0  2  0  0  0
   12.4968   -4.3201    0.0000 C   0  0
   12.5213   -3.4961    0.0000 C   0  0
   11.8166   -3.0673    0.0000 C   0  0
   11.0948   -3.4623    0.0000 C   0  0
   11.0777   -4.2903    0.0000 C   0  0
   11.7830   -4.7153    0.0000 C   0  0
   13.2477   -3.1035    0.0000 C   0  0
   10.3540   -4.6877    0.0000 F   0  0
   16.7970   -3.5930    0.0000 C   0  0
   14.6098   -4.7822    0.0000 C   0  0
   16.0580   -4.8176    0.0000 C   0  0
   14.6099   -5.6083    0.0000 C   0  0
   15.3558   -4.3881    0.0000 C   0  0
   16.0383   -5.6424    0.0000 C   0  0
   15.3164   -6.0378    0.0000 N   0  0
   13.8838   -6.0037    0.0000 N   0  0
   16.7816   -4.4221    0.0000 C   0  0
   17.5580   -4.6911    0.0000 C   0  0
   18.0586   -4.0349    0.0000 N   0  0
   17.5882   -3.3612    0.0000 N   0  0
   17.7964   -5.4784    0.0000 C   0  0
   12.7836   -5.4617    0.0000 C   0  0
   13.9638   -3.5444    0.0000 O   0  0
   13.2713   -2.2629    0.0000 N   0  0
   14.0111   -1.8632    0.0000 C   0  0
   12.5552   -1.8222    0.0000 C   0  0
   17.8671   -2.5678    0.0000 C   0  0
 12  1  1  0
  1  2  1  0
  2  3  1  0
  3  4  2  0
  4  5  1  0
  5  6  2  0
  6  7  1  0
  7  8  2  0
  8  3  1  0
  4  9  1  0
  7 10  1  0
 14 12  1  0
 12 15  2  0
 15 13  1  0
 13 16  2  0
 16 17  1  0
 14 17  2  0
 14 18  1  0
 13 19  1  0
 11 19  2  0
 19 20  1  0
 20 21  2  0
 21 22  1  0
 22 11  1  0
 20 23  1  0
  2 24  1  1
  9 25  2  0
  9 26  1  0
 26 27  1  0
 26 28  1  0
 27 11  1  0
 22 29  1  0
M  END
> <From>
www.bindingDB.org

> <BindingDB Reactant_set_id>
50103655

> <Ligand InChI>
InChI=1S/C21H22FN5O2/c1-11-19-13-7-18(20(23)24-9-13)29-12(2)16-8-14(22)5-6-15(16)21(28)26(3)10-17(19)27(4)25-11/h5-9,12H,10H2,1-4H3,(H2,23,24)/t12-/m0/s1

> <Ligand InChI Key>
ASQDMAQHZGURLM-LBPRGKRZSA-N

> <BindingDB MonomerID>
50018831

> <BindingDB Ligand Name>
CHEMBL3286821

> <Target Name>
ALK tyrosine kinase receptor

> <Target Source Organism According to Curator or DataSource>
Homo sapiens

> <Ki (nM)>
 61

> <IC50 (nM)>


> <Kd (nM)>


> <EC50 (nM)>


> <kon (M-1-s-1)>


> <koff (s-1)>


> <pH>


> <Temp C>


> <Curation/DataSource>
ChEMBL

> <Article DOI>
10.1021/jm500261q

> <BindingDB Entry DOI>
10.7270/Q2K35W68

> <PMID>
24819116

> <PubChem AID>


> <Patent Number>


> <Authors>
Johnson, TW; Richardson, PF; Bailey, S; Brooun, A; Burke, BJ; Collins, MR; Cui, JJ; Deal, JG; Deng, YL; Dinh, D; Engstrom, LD; He, M; Hoffman, J; Hoffman, RL; Huang, Q; Kania, RS; Kath, JC; Lam, H; Lam, JL; Le, PT; Lingardo, L; Liu, W; McTigue, M; Palmer, CL; Sach, NW; Smeal, T; Smith, GL; Stewart, AE; Timofeevski, S; Zhu, H; Zhu, J; Zou, HY; Edwards, MP

> <Date of publication>
6/12/2014

> <Date in BindingDB>
2/11/2015

> <Institution>
Pfizer Inc

> <Link to Ligand in BindingDB>
http://www.bindingdb.org/bind/chemsearch/marvin/MolStructure.jsp?monomerid=50018831

> <Link to Ligand-Target Pair in BindingDB>
http://www.bindingdb.org/jsp/dbsearch/PrimarySearch_ki.jsp?energyterm=kJ/mole&tag=pol&polymerid=5809&target=ALK+tyrosine+kinase+receptor&column=ki&startPg=0&Increment=50&submit=Search

> <Link to Ligand-Target Pair in BindingDB>
http://www.bindingdb.org/jsp/dbsearch/PrimarySearch_ki.jsp?energyterm=kJ/mole&tag=r21&monomerid=50018831&enzyme=ALK+tyrosine+kinase+receptor&column=ki&startPg=0&Increment=50&submit=Search

> <Ligand HET ID in PDB>


> <PDB ID(s) for Ligand-Target Complex>


> <PubChem CID of Ligand>
90644198

> <PubChem SID of Ligand>
103929884

> <ChEBI ID of Ligand>


> <ChEMBL ID of Ligand>
CHEMBL3286821

> <DrugBank ID of Ligand>


> <IUPHAR_GRAC ID of Ligand>


> <KEGG ID of Ligand>


> <ZINC ID of Ligand>
ZINC36080056

> <Number of Protein Chains in Target (bigger than 1 implies a multichain complex)>
1

> <BindingDB Target Chain Sequence>
MGAIGLLWLLPLLLSTAAVGSGMGTGQRAGSPAAGPPLQPREPLSYSRLQRKSLAVDFVVPSLFRVYARDLLLPPSSSELKAGRPEARGSLALDCAPLLRLLGPAPGVSWTAGSPAPAEARTLSRVLKGGSVRKLRRAKQLVLELGEEAILEGCVGPPGEAAVGLLQFNLSELFSWWIRQGEGRLRIRLMPEKKASEVGREGRLSAAIRASQPRLLFQIFGTGHSSLESPTNMPSPSPDYFTWNLTWIMKDSFPFLSHRSRYGLECSFDFPCELEYSPPLHDLRNQSWSWRRIPSEEASQMDLLDGPGAERSKEMPRGSFLLLNTSADSKHTILSPWMRSSSEHCTLAVSVHRHLQPSGRYIAQLLPHNEAAREILLMPTPGKHGWTVLQGRIGRPDNPFRVALEYISSGNRSLSAVDFFALKNCSEGTSPGSKMALQSSFTCWNGTVLQLGQACDFHQDCAQGEDESQMCRKLPVGFYCNFEDGFCGWTQGTLSPHTPQWQVRTLKDARFQDHQDHALLLSTTDVPASESATVTSATFPAPIKSSPCELRMSWLIRGVLRGNVSLVLVENKTGKEQGRMVWHVAAYEGLSLWQWMVLPLLDVSDRFWLQMVAWWGQGSRAIVAFDNISISLDCYLTISGEDKILQNTAPKSRNLFERNPNKELKPGENSPRQTPIFDPTVHWLFTTCGASGPHGPTQAQCNNAYQNSNLSVEVGSEGPLKGIQIWKVPATDTYSISGYGAAGGKGGKNTMMRSHGVSVLGIFNLEKDDMLYILVGQQGEDACPSTNQLIQKVCIGENNVIEEEIRVNRSVHEWAGGGGGGGGATYVFKMKDGVPVPLIIAAGGGGRAYGAKTDTFHPERLENNSSVLGLNGNSGAAGGGGGWNDNTSLLWAGKSLQEGATGGHSCPQAMKKWGWETRGGFGGGGGGCSSGGGGGGYIGGNAASNNDPEMDGEDGVSFISPLGILYTPALKVMEGHGEVNIKHYLNCSHCEVDECHMDPESHKVICFCDHGTVLAEDGVSCIVSPTPEPHLPLSLILSVVTSALVAALVLAFSGIMIVYRRKHQELQAMQMELQSPEYKLSKLRTSTIMTDYNPNYCFAGKTSSISDLKEVPRKNITLIRGLGHGAFGEVYEGQVSGMPNDPSPLQVAVKTLPEVCSEQDELDFLMEALIISKFNHQNIVRCIGVSLQSLPRFILLELMAGGDLKSFLRETRPRPSQPSSLAMLDLLHVARDIACGCQYLEENHFIHRDIAARNCLLTCPGPGRVAKIGDFGMARDIYRASYYRKGGCAMLPVKWMPPEAFMEGIFTSKTDTWSFGVLLWEIFSLGYMPYPSKSNQEVLEFVTSGGRMDPPKNCPGPVYRIMTQCWQHQPEDRPNFAIILERIEYCTQDPDVINTALPIEYGPLVEEEEKVPVRPKDPEGVPPLLVSQQAKREEERSPAAPPPLPTTSSGKAAKKPTAAEISVRVPRGPAVEGGHVNMAFSQSNPPSELHKVHGSRNKPTSLWNPTYGSWFTEKPTKKNNPIAKKEPHDRGNLGLEGSCTVPPNVATGRLPGASLLLEPSSLTANMKEVPLFRLRHFPCGNVNYGYQQQGLPLEAATAPGAGHYEDTILKSKNSMNQPGP

> <PDB ID(s) of Target Chain>
2XB7,2XBA,3AOX,5FTO,5FTQ,6E0R,6EBW,6EDL,6MX8,7JY4,7JYR,7JYS,7JYT,7LS0,7MZW,7MZY,7N00,7NX3,7NX4,8ARJ

> <UniProt (SwissProt) Recommended Name of Target Chain>
ALK tyrosine kinase receptor

> <UniProt (SwissProt) Entry Name of Target Chain>
ALK_HUMAN

> <UniProt (SwissProt) Primary ID of Target Chain>
Q9UM73

> <UniProt (SwissProt) Secondary ID(s) of Target Chain>
A6P4T4 A6P4V4 Q4ZFX9 Q53QQ6 Q53RZ4 Q59FI3 Q9Y4K6

> <UniProt (SwissProt) Alternative ID(s) of Target Chain>


> <UniProt (TrEMBL) Submitted Name of Target Chain>


> <UniProt (TrEMBL) Entry Name of Target Chain>


> <UniProt (TrEMBL) Primary ID of Target Chain>


> <UniProt (TrEMBL) Secondary ID(s) of Target Chain>


> <UniProt (TrEMBL) Alternative ID(s) of Target Chain>


$$$$

  SciTegic09261414532D

 29 32  0  0  0  0            999 V2000
   15.1954   -4.7994    0.0000 O   0  0
   14.4745   -5.1942    0.0000 C   0  0  2  0  0  0
   13.7691   -4.7653    0.0000 C   0  0
   13.7936   -3.9416    0.0000 C   0  0
   13.0891   -3.5129    0.0000 C   0  0
   12.3672   -3.9076    0.0000 C   0  0
   12.3503   -4.7357    0.0000 C   0  0
   13.0555   -5.1605    0.0000 C   0  0
   14.5199   -3.5491    0.0000 C   0  0
   11.6266   -5.1331    0.0000 F   0  0
   18.0689   -4.0384    0.0000 C   0  0
   15.8818   -5.2274    0.0000 C   0  0
   17.3299   -5.2628    0.0000 C   0  0
   15.8820   -6.0535    0.0000 C   0  0
   16.6278   -4.8334    0.0000 N   0  0
   17.3102   -6.0876    0.0000 C   0  0
   16.5884   -6.4829    0.0000 N   0  0
   15.1560   -6.4488    0.0000 N   0  0
   18.0534   -4.8675    0.0000 C   0  0
   18.8297   -5.1364    0.0000 C   0  0
   19.3303   -4.4802    0.0000 N   0  0
   18.8599   -3.8066    0.0000 N   0  0
   19.0680   -5.9236    0.0000 C   0  0
   14.0559   -5.9069    0.0000 C   0  0
   15.2360   -3.9898    0.0000 O   0  0
   14.5436   -2.7086    0.0000 N   0  0
   15.2832   -2.3088    0.0000 C   0  0
   13.8275   -2.2679    0.0000 C   0  0
   19.1388   -3.0134    0.0000 C   0  0
 12  1  1  0
  1  2  1  0
  2  3  1  0
  3  4  2  0
  4  5  1  0
  5  6  2  0
  6  7  1  0
  7  8  2  0
  8  3  1  0
  4  9  1  0
  7 10  1  0
 14 12  1  0
 12 15  2  0
 15 13  1  0
 13 16  2  0
 16 17  1  0
 14 17  2  0
 14 18  1  0
 13 19  1  0
 11 19  2  0
 19 20  1  0
 20 21  2  0
 21 22  1  0
 22 11  1  0
 20 23  1  0
  2 24  1  1
  9 25  2  0
  9 26  1  0
 26 27  1  0
 26 28  1  0
 27 11  1  0
 22 29  1  0
M  END
> <From>
www.bindingDB.org

> <BindingDB Reactant_set_id>
50103660

> <Ligand InChI>
InChI=1S/C20H21FN6O2/c1-10-17-15-8-23-18(22)19(24-15)29-11(2)14-7-12(21)5-6-13(14)20(28)26(3)9-16(17)27(4)25-10/h5-8,11H,9H2,1-4H3,(H2,22,23)/t11-/m0/s1

> <Ligand InChI Key>
BOSKQVUEUWJLFT-NSHDSACASA-N

> <BindingDB MonomerID>
50018834

> <BindingDB Ligand Name>
CHEMBL3286824

> <Target Name>
ALK tyrosine kinase receptor

> <Target Source Organism According to Curator or DataSource>
Homo sapiens

> <Ki (nM)>
 61

> <IC50 (nM)>


> <Kd (nM)>


> <EC50 (nM)>


> <kon (M-1-s-1)>


> <koff (s-1)>


> <pH>


> <Temp C>


> <Curation/DataSource>
ChEMBL

> <Article DOI>
10.1021/jm500261q

> <BindingDB Entry DOI>
10.7270/Q2K35W68

> <PMID>
24819116

> <PubChem AID>


> <Patent Number>


> <Authors>
Johnson, TW; Richardson, PF; Bailey, S; Brooun, A; Burke, BJ; Collins, MR; Cui, JJ; Deal, JG; Deng, YL; Dinh, D; Engstrom, LD; He, M; Hoffman, J; Hoffman, RL; Huang, Q; Kania, RS; Kath, JC; Lam, H; Lam, JL; Le, PT; Lingardo, L; Liu, W; McTigue, M; Palmer, CL; Sach, NW; Smeal, T; Smith, GL; Stewart, AE; Timofeevski, S; Zhu, H; Zhu, J; Zou, HY; Edwards, MP

> <Date of publication>
6/12/2014

> <Date in BindingDB>
2/11/2015

> <Institution>
Pfizer Inc

> <Link to Ligand in BindingDB>
http://www.bindingdb.org/bind/chemsearch/marvin/MolStructure.jsp?monomerid=50018834

> <Link to Ligand-Target Pair in BindingDB>
http://www.bindingdb.org/jsp/dbsearch/PrimarySearch_ki.jsp?energyterm=kJ/mole&tag=pol&polymerid=5809&target=ALK+tyrosine+kinase+receptor&column=ki&startPg=0&Increment=50&submit=Search

> <Link to Ligand-Target Pair in BindingDB>
http://www.bindingdb.org/jsp/dbsearch/PrimarySearch_ki.jsp?energyterm=kJ/mole&tag=r21&monomerid=50018834&enzyme=ALK+tyrosine+kinase+receptor&column=ki&startPg=0&Increment=50&submit=Search

> <Ligand HET ID in PDB>


> <PDB ID(s) for Ligand-Target Complex>


> <PubChem CID of Ligand>
90644200

> <PubChem SID of Ligand>
103929887

> <ChEBI ID of Ligand>


> <ChEMBL ID of Ligand>
CHEMBL3286824

> <DrugBank ID of Ligand>


> <IUPHAR_GRAC ID of Ligand>


> <KEGG ID of Ligand>


> <ZINC ID of Ligand>
ZINC36080054

> <Number of Protein Chains in Target (bigger than 1 implies a multichain complex)>
1

> <BindingDB Target Chain Sequence>
MGAIGLLWLLPLLLSTAAVGSGMGTGQRAGSPAAGPPLQPREPLSYSRLQRKSLAVDFVVPSLFRVYARDLLLPPSSSELKAGRPEARGSLALDCAPLLRLLGPAPGVSWTAGSPAPAEARTLSRVLKGGSVRKLRRAKQLVLELGEEAILEGCVGPPGEAAVGLLQFNLSELFSWWIRQGEGRLRIRLMPEKKASEVGREGRLSAAIRASQPRLLFQIFGTGHSSLESPTNMPSPSPDYFTWNLTWIMKDSFPFLSHRSRYGLECSFDFPCELEYSPPLHDLRNQSWSWRRIPSEEASQMDLLDGPGAERSKEMPRGSFLLLNTSADSKHTILSPWMRSSSEHCTLAVSVHRHLQPSGRYIAQLLPHNEAAREILLMPTPGKHGWTVLQGRIGRPDNPFRVALEYISSGNRSLSAVDFFALKNCSEGTSPGSKMALQSSFTCWNGTVLQLGQACDFHQDCAQGEDESQMCRKLPVGFYCNFEDGFCGWTQGTLSPHTPQWQVRTLKDARFQDHQDHALLLSTTDVPASESATVTSATFPAPIKSSPCELRMSWLIRGVLRGNVSLVLVENKTGKEQGRMVWHVAAYEGLSLWQWMVLPLLDVSDRFWLQMVAWWGQGSRAIVAFDNISISLDCYLTISGEDKILQNTAPKSRNLFERNPNKELKPGENSPRQTPIFDPTVHWLFTTCGASGPHGPTQAQCNNAYQNSNLSVEVGSEGPLKGIQIWKVPATDTYSISGYGAAGGKGGKNTMMRSHGVSVLGIFNLEKDDMLYILVGQQGEDACPSTNQLIQKVCIGENNVIEEEIRVNRSVHEWAGGGGGGGGATYVFKMKDGVPVPLIIAAGGGGRAYGAKTDTFHPERLENNSSVLGLNGNSGAAGGGGGWNDNTSLLWAGKSLQEGATGGHSCPQAMKKWGWETRGGFGGGGGGCSSGGGGGGYIGGNAASNNDPEMDGEDGVSFISPLGILYTPALKVMEGHGEVNIKHYLNCSHCEVDECHMDPESHKVICFCDHGTVLAEDGVSCIVSPTPEPHLPLSLILSVVTSALVAALVLAFSGIMIVYRRKHQELQAMQMELQSPEYKLSKLRTSTIMTDYNPNYCFAGKTSSISDLKEVPRKNITLIRGLGHGAFGEVYEGQVSGMPNDPSPLQVAVKTLPEVCSEQDELDFLMEALIISKFNHQNIVRCIGVSLQSLPRFILLELMAGGDLKSFLRETRPRPSQPSSLAMLDLLHVARDIACGCQYLEENHFIHRDIAARNCLLTCPGPGRVAKIGDFGMARDIYRASYYRKGGCAMLPVKWMPPEAFMEGIFTSKTDTWSFGVLLWEIFSLGYMPYPSKSNQEVLEFVTSGGRMDPPKNCPGPVYRIMTQCWQHQPEDRPNFAIILERIEYCTQDPDVINTALPIEYGPLVEEEEKVPVRPKDPEGVPPLLVSQQAKREEERSPAAPPPLPTTSSGKAAKKPTAAEISVRVPRGPAVEGGHVNMAFSQSNPPSELHKVHGSRNKPTSLWNPTYGSWFTEKPTKKNNPIAKKEPHDRGNLGLEGSCTVPPNVATGRLPGASLLLEPSSLTANMKEVPLFRLRHFPCGNVNYGYQQQGLPLEAATAPGAGHYEDTILKSKNSMNQPGP

> <PDB ID(s) of Target Chain>
2XB7,2XBA,3AOX,5FTO,5FTQ,6E0R,6EBW,6EDL,6MX8,7JY4,7JYR,7JYS,7JYT,7LS0,7MZW,7MZY,7N00,7NX3,7NX4,8ARJ

> <UniProt (SwissProt) Recommended Name of Target Chain>
ALK tyrosine kinase receptor

> <UniProt (SwissProt) Entry Name of Target Chain>
ALK_HUMAN

> <UniProt (SwissProt) Primary ID of Target Chain>
Q9UM73

> <UniProt (SwissProt) Secondary ID(s) of Target Chain>
A6P4T4 A6P4V4 Q4ZFX9 Q53QQ6 Q53RZ4 Q59FI3 Q9Y4K6

> <UniProt (SwissProt) Alternative ID(s) of Target Chain>


> <UniProt (TrEMBL) Submitted Name of Target Chain>


> <UniProt (TrEMBL) Entry Name of Target Chain>


> <UniProt (TrEMBL) Primary ID of Target Chain>


> <UniProt (TrEMBL) Secondary ID(s) of Target Chain>


> <UniProt (TrEMBL) Alternative ID(s) of Target Chain>


$$$$

  SciTegic09261414532D

 33 37  0  0  0  0            999 V2000
   14.8965   -4.5449    0.0000 O   0  0
   14.1960   -4.9286    0.0000 C   0  0  1  0  0  0
   13.5104   -4.5118    0.0000 C   0  0
   13.5342   -3.7112    0.0000 C   0  0
   12.8494   -3.2945    0.0000 C   0  0
   12.1479   -3.6782    0.0000 C   0  0
   12.1313   -4.4830    0.0000 C   0  0
   12.8167   -4.8960    0.0000 C   0  0
   14.2401   -3.3297    0.0000 C   0  0
   11.4280   -4.8692    0.0000 F   0  0
   17.6893   -3.8053    0.0000 C   0  0
   15.5638   -4.9609    0.0000 C   0  0
   16.9711   -4.9953    0.0000 C   0  0
   15.5639   -5.7638    0.0000 C   0  0
   16.2887   -4.5780    0.0000 N   0  0
   16.9520   -5.7969    0.0000 C   0  0
   16.2505   -6.1811    0.0000 N   0  0
   14.8583   -6.1480    0.0000 N   0  0
   17.6743   -4.6111    0.0000 C   0  0
   18.4582   -3.5800    0.0000 N   0  0
   13.7891   -5.6213    0.0000 C   0  0
   14.9360   -3.7580    0.0000 O   0  0
   14.2631   -2.5128    0.0000 N   0  0
   14.9820   -2.1243    0.0000 C   0  0
   13.5671   -2.0845    0.0000 C   0  0
   18.9153   -4.2348    0.0000 C   0  0
   18.4287   -4.8673    0.0000 N   0  0
   18.7334   -5.6029    0.0000 C   0  0
   19.5243   -5.7072    0.0000 C   0  0
   20.0097   -5.0699    0.0000 C   0  0
   19.7024   -4.3368    0.0000 C   0  0
   19.8383   -6.4616    0.0000 C   0  0
   20.1537   -7.2121    0.0000 N   0  0
 12  1  1  0
  1  2  1  0
  2  3  1  0
  3  4  2  0
  4  5  1  0
  5  6  2  0
  6  7  1  0
  7  8  2  0
  8  3  1  0
  4  9  1  0
  7 10  1  0
 14 12  1  0
 12 15  2  0
 15 13  1  0
 13 16  2  0
 16 17  1  0
 14 17  2  0
 14 18  1  0
 13 19  1  0
 11 19  2  0
 19 27  1  0
 26 20  2  0
 20 11  1  0
  2 21  1  6
  9 22  2  0
  9 23  1  0
 23 24  1  0
 23 25  1  0
 24 11  1  0
 26 27  1  0
 27 28  1  0
 28 29  2  0
 29 30  1  0
 30 31  2  0
 31 26  1  0
 29 32  1  0
 32 33  3  0
M  END
> <From>
www.bindingDB.org

> <BindingDB Reactant_set_id>
50103609

> <Ligand InChI>
InChI=1S/C23H18FN7O2/c1-12-16-7-14(24)4-5-15(16)23(32)30(2)11-18-20(17-9-27-21(26)22(29-17)33-12)31-10-13(8-25)3-6-19(31)28-18/h3-7,9-10,12H,11H2,1-2H3,(H2,26,27)/t12-/m1/s1

> <Ligand InChI Key>
MOENETCLMCOREY-GFCCVEGCSA-N

> <BindingDB MonomerID>
50018842

> <BindingDB Ligand Name>
CHEMBL3286832

> <Target Name>
BDNF/NT-3 growth factors receptor

> <Target Source Organism According to Curator or DataSource>
Human

> <Ki (nM)>
 65

> <IC50 (nM)>


> <Kd (nM)>


> <EC50 (nM)>


> <kon (M-1-s-1)>


> <koff (s-1)>


> <pH>


> <Temp C>


> <Curation/DataSource>
ChEMBL

> <Article DOI>
10.1021/jm500261q

> <BindingDB Entry DOI>
10.7270/Q2K35W68

> <PMID>
24819116

> <PubChem AID>


> <Patent Number>


> <Authors>
Johnson, TW; Richardson, PF; Bailey, S; Brooun, A; Burke, BJ; Collins, MR; Cui, JJ; Deal, JG; Deng, YL; Dinh, D; Engstrom, LD; He, M; Hoffman, J; Hoffman, RL; Huang, Q; Kania, RS; Kath, JC; Lam, H; Lam, JL; Le, PT; Lingardo, L; Liu, W; McTigue, M; Palmer, CL; Sach, NW; Smeal, T; Smith, GL; Stewart, AE; Timofeevski, S; Zhu, H; Zhu, J; Zou, HY; Edwards, MP

> <Date of publication>
6/12/2014

> <Date in BindingDB>
2/11/2015

> <Institution>
Pfizer Inc

> <Link to Ligand in BindingDB>
http://www.bindingdb.org/bind/chemsearch/marvin/MolStructure.jsp?monomerid=50018842

> <Link to Ligand-Target Pair in BindingDB>
http://www.bindingdb.org/jsp/dbsearch/PrimarySearch_ki.jsp?energyterm=kJ/mole&tag=pol&polymerid=6476&target=BDNF%2FNT-3+growth+factors+receptor&column=ki&startPg=0&Increment=50&submit=Search

> <Link to Ligand-Target Pair in BindingDB>
http://www.bindingdb.org/jsp/dbsearch/PrimarySearch_ki.jsp?energyterm=kJ/mole&tag=r21&monomerid=50018842&enzyme=BDNF%2FNT-3+growth+factors+receptor&column=ki&startPg=0&Increment=50&submit=Search

> <Ligand HET ID in PDB>
KVC

> <PDB ID(s) for Ligand-Target Complex>
4CTB

> <PubChem CID of Ligand>
89816720

> <PubChem SID of Ligand>
103929895

> <ChEBI ID of Ligand>


> <ChEMBL ID of Ligand>
CHEMBL3286832

> <DrugBank ID of Ligand>


> <IUPHAR_GRAC ID of Ligand>


> <KEGG ID of Ligand>


> <ZINC ID of Ligand>
ZINC33891518

> <Number of Protein Chains in Target (bigger than 1 implies a multichain complex)>
1

> <BindingDB Target Chain Sequence>
MSSWIRWHGPAMARLWGFCWLVVGFWRAAFACPTSCKCSASRIWCSDPSPGIVAFPRLEPNSVDPENITEIFIANQKRLEIINEDDVEAYVGLRNLTIVDSGLKFVAHKAFLKNSNLQHINFTRNKLTSLSRKHFRHLDLSELILVGNPFTCSCDIMWIKTLQEAKSSPDTQDLYCLNESSKNIPLANLQIPNCGLPSANLAAPNLTVEEGKSITLSCSVAGDPVPNMYWDVGNLVSKHMNETSHTQGSLRITNISSDDSGKQISCVAENLVGEDQDSVNLTVHFAPTITFLESPTSDHHWCIPFTVKGNPKPALQWFYNGAILNESKYICTKIHVTNHTEYHGCLQLDNPTHMNNGDYTLIAKNEYGKDEKQISAHFMGWPGIDDGANPNYPDVIYEDYGTAANDIGDTTNRSNEIPSTDVTDKTGREHLSVYAVVVIASVVGFCLLVMLFLLKLARHSKFGMKGPASVISNDDDSASPLHHISNGSNTPSSSEGGPDAVIIGMTKIPVIENPQYFGITNSQLKPDTFVQHIKRHNIVLKRELGEGAFGKVFLAECYNLCPEQDKILVAVKTLKDASDNARKDFHREAELLTNLQHEHIVKFYGVCVEGDPLIMVFEYMKHGDLNKFLRAHGPDAVLMAEGNPPTELTQSQMLHIAQQIAAGMVYLASQHFVHRDLATRNCLVGENLLVKIGDFGMSRDVYSTDYYRVGGHTMLPIRWMPPESIMYRKFTTESDVWSLGVVLWEIFTYGKQPWYQLSNNEVIECITQGRVLQRPRTCPQEVYELMLGCWQREPHMRKNIKGIHTLLQNLAKASPVYLDILG

> <PDB ID(s) of Target Chain>
1WWB,4ASZ,4AT3,4AT4,4AT5,5MO9

> <UniProt (SwissProt) Recommended Name of Target Chain>
BDNF/NT-3 growth factors receptor

> <UniProt (SwissProt) Entry Name of Target Chain>
NTRK2_HUMAN

> <UniProt (SwissProt) Primary ID of Target Chain>
Q16620

> <UniProt (SwissProt) Secondary ID(s) of Target Chain>
B1ANZ4 B4DFV9 Q16675 Q59GJ1 Q8WXJ5 Q8WXJ6 Q8WXJ7

> <UniProt (SwissProt) Alternative ID(s) of Target Chain>


> <UniProt (TrEMBL) Submitted Name of Target Chain>


> <UniProt (TrEMBL) Entry Name of Target Chain>


> <UniProt (TrEMBL) Primary ID of Target Chain>


> <UniProt (TrEMBL) Secondary ID(s) of Target Chain>


> <UniProt (TrEMBL) Alternative ID(s) of Target Chain>


$$$$

  SciTegic05061409512D

 28 31  0  0  0  0            999 V2000
   10.1132  -15.5826    0.0000 C   0  0
   10.1132  -14.7576    0.0000 C   0  0
   10.8277  -14.3451    0.0000 C   0  0
   11.5422  -14.7576    0.0000 C   0  0
   11.5422  -15.5826    0.0000 C   0  0
   10.8277  -15.9951    0.0000 N   0  0
    9.3988  -15.9951    0.0000 N   0  0
   12.3429  -13.5246    0.0000 N   0  0
   13.1499  -13.3530    0.0000 N   0  0
   13.5624  -14.0675    0.0000 N   0  0
   13.0103  -14.6806    0.0000 C   0  0
   12.2567  -14.3451    0.0000 C   0  0
   11.7298  -12.9725    0.0000 C   0  0
    9.3988  -14.3451    0.0000 O   0  0
    8.6843  -14.7576    0.0000 C   0  0  2  0  0  0
    8.6843  -15.5826    0.0000 C   0  0
    7.9698  -14.3451    0.0000 C   0  0
    7.2554  -14.7576    0.0000 C   0  0
    6.5409  -14.3451    0.0000 C   0  0
    6.5409  -13.5201    0.0000 C   0  0
    7.2554  -13.1076    0.0000 C   0  0
    7.9698  -13.5201    0.0000 C   0  0
    6.5879  -16.0675    0.0000 N   0  0
    7.2554  -15.5826    0.0000 N   0  0
    7.9228  -16.0675    0.0000 N   0  0
    7.6679  -16.8521    0.0000 C   0  0
    6.8429  -16.8521    0.0000 C   0  0
    7.2554  -12.2826    0.0000 F   0  0
  1  2  1  0
  2  3  2  0
  3  4  1  0
  4  5  2  0
  5  6  1  0
  1  6  2  0
  1  7  1  0
  8  9  1  0
  9 10  2  0
 10 11  1  0
 11 12  2  0
  8 12  1  0
  8 13  1  0
  4 12  1  0
 15 16  1  6
 14 15  1  0
 17 18  1  0
 18 19  2  0
 19 20  1  0
 20 21  2  0
 21 22  1  0
 17 22  2  0
 23 24  1  0
 24 25  1  0
 25 26  2  0
 26 27  1  0
 23 27  2  0
 18 24  1  0
 21 28  1  0
 15 17  1  0
  2 14  1  0
M  END
> <From>
www.bindingDB.org

> <BindingDB Reactant_set_id>
50103565

> <Ligand InChI>
InChI=1S/C18H17FN8O/c1-11(14-8-13(19)3-4-15(14)27-23-5-6-24-27)28-17-7-12(9-21-18(17)20)16-10-22-25-26(16)2/h3-11H,1-2H3,(H2,20,21)/t11-/m1/s1

> <Ligand InChI Key>
OEAYZBGGCSQPKK-LLVKDONJSA-N

> <BindingDB MonomerID>
50018817

> <BindingDB Ligand Name>
CHEMBL3128060

> <Target Name>
ALK tyrosine kinase receptor

> <Target Source Organism According to Curator or DataSource>
Homo sapiens

> <Ki (nM)>
 70

> <IC50 (nM)>


> <Kd (nM)>


> <EC50 (nM)>


> <kon (M-1-s-1)>


> <koff (s-1)>


> <pH>


> <Temp C>


> <Curation/DataSource>
ChEMBL

> <Article DOI>
10.1021/jm500261q

> <BindingDB Entry DOI>
10.7270/Q2K35W68

> <PMID>
24819116

> <PubChem AID>


> <Patent Number>


> <Authors>
Johnson, TW; Richardson, PF; Bailey, S; Brooun, A; Burke, BJ; Collins, MR; Cui, JJ; Deal, JG; Deng, YL; Dinh, D; Engstrom, LD; He, M; Hoffman, J; Hoffman, RL; Huang, Q; Kania, RS; Kath, JC; Lam, H; Lam, JL; Le, PT; Lingardo, L; Liu, W; McTigue, M; Palmer, CL; Sach, NW; Smeal, T; Smith, GL; Stewart, AE; Timofeevski, S; Zhu, H; Zhu, J; Zou, HY; Edwards, MP

> <Date of publication>
6/12/2014

> <Date in BindingDB>
2/11/2015

> <Institution>
Pfizer Inc

> <Link to Ligand in BindingDB>
http://www.bindingdb.org/bind/chemsearch/marvin/MolStructure.jsp?monomerid=50018817

> <Link to Ligand-Target Pair in BindingDB>
http://www.bindingdb.org/jsp/dbsearch/PrimarySearch_ki.jsp?energyterm=kJ/mole&tag=pol&polymerid=5809&target=ALK+tyrosine+kinase+receptor&column=ki&startPg=0&Increment=50&submit=Search

> <Link to Ligand-Target Pair in BindingDB>
http://www.bindingdb.org/jsp/dbsearch/PrimarySearch_ki.jsp?energyterm=kJ/mole&tag=r21&monomerid=50018817&enzyme=ALK+tyrosine+kinase+receptor&column=ki&startPg=0&Increment=50&submit=Search

> <Ligand HET ID in PDB>


> <PDB ID(s) for Ligand-Target Complex>


> <PubChem CID of Ligand>
76318349

> <PubChem SID of Ligand>
103929870

> <ChEBI ID of Ligand>


> <ChEMBL ID of Ligand>
CHEMBL3128060

> <DrugBank ID of Ligand>


> <IUPHAR_GRAC ID of Ligand>


> <KEGG ID of Ligand>


> <ZINC ID of Ligand>
ZINC33891498

> <Number of Protein Chains in Target (bigger than 1 implies a multichain complex)>
1

> <BindingDB Target Chain Sequence>
MGAIGLLWLLPLLLSTAAVGSGMGTGQRAGSPAAGPPLQPREPLSYSRLQRKSLAVDFVVPSLFRVYARDLLLPPSSSELKAGRPEARGSLALDCAPLLRLLGPAPGVSWTAGSPAPAEARTLSRVLKGGSVRKLRRAKQLVLELGEEAILEGCVGPPGEAAVGLLQFNLSELFSWWIRQGEGRLRIRLMPEKKASEVGREGRLSAAIRASQPRLLFQIFGTGHSSLESPTNMPSPSPDYFTWNLTWIMKDSFPFLSHRSRYGLECSFDFPCELEYSPPLHDLRNQSWSWRRIPSEEASQMDLLDGPGAERSKEMPRGSFLLLNTSADSKHTILSPWMRSSSEHCTLAVSVHRHLQPSGRYIAQLLPHNEAAREILLMPTPGKHGWTVLQGRIGRPDNPFRVALEYISSGNRSLSAVDFFALKNCSEGTSPGSKMALQSSFTCWNGTVLQLGQACDFHQDCAQGEDESQMCRKLPVGFYCNFEDGFCGWTQGTLSPHTPQWQVRTLKDARFQDHQDHALLLSTTDVPASESATVTSATFPAPIKSSPCELRMSWLIRGVLRGNVSLVLVENKTGKEQGRMVWHVAAYEGLSLWQWMVLPLLDVSDRFWLQMVAWWGQGSRAIVAFDNISISLDCYLTISGEDKILQNTAPKSRNLFERNPNKELKPGENSPRQTPIFDPTVHWLFTTCGASGPHGPTQAQCNNAYQNSNLSVEVGSEGPLKGIQIWKVPATDTYSISGYGAAGGKGGKNTMMRSHGVSVLGIFNLEKDDMLYILVGQQGEDACPSTNQLIQKVCIGENNVIEEEIRVNRSVHEWAGGGGGGGGATYVFKMKDGVPVPLIIAAGGGGRAYGAKTDTFHPERLENNSSVLGLNGNSGAAGGGGGWNDNTSLLWAGKSLQEGATGGHSCPQAMKKWGWETRGGFGGGGGGCSSGGGGGGYIGGNAASNNDPEMDGEDGVSFISPLGILYTPALKVMEGHGEVNIKHYLNCSHCEVDECHMDPESHKVICFCDHGTVLAEDGVSCIVSPTPEPHLPLSLILSVVTSALVAALVLAFSGIMIVYRRKHQELQAMQMELQSPEYKLSKLRTSTIMTDYNPNYCFAGKTSSISDLKEVPRKNITLIRGLGHGAFGEVYEGQVSGMPNDPSPLQVAVKTLPEVCSEQDELDFLMEALIISKFNHQNIVRCIGVSLQSLPRFILLELMAGGDLKSFLRETRPRPSQPSSLAMLDLLHVARDIACGCQYLEENHFIHRDIAARNCLLTCPGPGRVAKIGDFGMARDIYRASYYRKGGCAMLPVKWMPPEAFMEGIFTSKTDTWSFGVLLWEIFSLGYMPYPSKSNQEVLEFVTSGGRMDPPKNCPGPVYRIMTQCWQHQPEDRPNFAIILERIEYCTQDPDVINTALPIEYGPLVEEEEKVPVRPKDPEGVPPLLVSQQAKREEERSPAAPPPLPTTSSGKAAKKPTAAEISVRVPRGPAVEGGHVNMAFSQSNPPSELHKVHGSRNKPTSLWNPTYGSWFTEKPTKKNNPIAKKEPHDRGNLGLEGSCTVPPNVATGRLPGASLLLEPSSLTANMKEVPLFRLRHFPCGNVNYGYQQQGLPLEAATAPGAGHYEDTILKSKNSMNQPGP

> <PDB ID(s) of Target Chain>
2XB7,2XBA,3AOX,5FTO,5FTQ,6E0R,6EBW,6EDL,6MX8,7JY4,7JYR,7JYS,7JYT,7LS0,7MZW,7MZY,7N00,7NX3,7NX4,8ARJ

> <UniProt (SwissProt) Recommended Name of Target Chain>
ALK tyrosine kinase receptor

> <UniProt (SwissProt) Entry Name of Target Chain>
ALK_HUMAN

> <UniProt (SwissProt) Primary ID of Target Chain>
Q9UM73

> <UniProt (SwissProt) Secondary ID(s) of Target Chain>
A6P4T4 A6P4V4 Q4ZFX9 Q53QQ6 Q53RZ4 Q59FI3 Q9Y4K6

> <UniProt (SwissProt) Alternative ID(s) of Target Chain>


> <UniProt (TrEMBL) Submitted Name of Target Chain>


> <UniProt (TrEMBL) Entry Name of Target Chain>


> <UniProt (TrEMBL) Primary ID of Target Chain>


> <UniProt (TrEMBL) Secondary ID(s) of Target Chain>


> <UniProt (TrEMBL) Alternative ID(s) of Target Chain>


$$$$

  SciTegic09261414532D

 32 36  0  0  0  0            999 V2000
   15.3310   -4.6775    0.0000 O   0  0
   14.6101   -5.0724    0.0000 C   0  0  1  0  0  0
   13.9045   -4.6434    0.0000 C   0  0
   13.9290   -3.8195    0.0000 C   0  0
   13.2242   -3.3906    0.0000 C   0  0
   12.5023   -3.7855    0.0000 C   0  0
   12.4852   -4.6138    0.0000 C   0  0
   13.1906   -5.0388    0.0000 C   0  0
   14.6555   -3.4268    0.0000 C   0  0
   11.7614   -5.0112    0.0000 F   0  0
   18.2053   -3.9163    0.0000 C   0  0
   16.0178   -5.1056    0.0000 C   0  0
   17.4661   -5.1410    0.0000 C   0  0
   16.0179   -5.9319    0.0000 C   0  0
   16.7638   -4.7115    0.0000 C   0  0
   17.4465   -5.9660    0.0000 C   0  0
   16.7245   -6.3614    0.0000 N   0  0
   15.2917   -6.3273    0.0000 N   0  0
   18.1899   -4.7456    0.0000 C   0  0
   18.9966   -3.6844    0.0000 N   0  0
   14.1913   -5.7853    0.0000 C   0  0
   15.3717   -3.8676    0.0000 O   0  0
   14.6792   -2.5861    0.0000 N   0  0
   15.4190   -2.1863    0.0000 C   0  0
   13.9628   -2.1453    0.0000 C   0  0
   19.4671   -4.3583    0.0000 C   0  0
   18.9663   -5.0093    0.0000 N   0  0
   19.2798   -5.7663    0.0000 C   0  0
   20.0938   -5.8737    0.0000 C   0  0
   20.5934   -5.2178    0.0000 C   0  0
   20.2771   -4.4633    0.0000 N   0  0
   20.4170   -6.6501    0.0000 C   0  0
 12  1  1  0
  1  2  1  0
  2  3  1  0
  3  4  2  0
  4  5  1  0
  5  6  2  0
  6  7  1  0
  7  8  2  0
  8  3  1  0
  4  9  1  0
  7 10  1  0
 14 12  1  0
 12 15  2  0
 15 13  1  0
 13 16  2  0
 16 17  1  0
 14 17  2  0
 14 18  1  0
 13 19  1  0
 11 19  2  0
 19 27  1  0
 26 20  2  0
 20 11  1  0
  2 21  1  6
  9 22  2  0
  9 23  1  0
 23 24  1  0
 23 25  1  0
 24 11  1  0
 26 27  1  0
 27 28  1  0
 28 29  2  0
 29 30  1  0
 30 31  2  0
 31 26  1  0
 29 32  1  0
M  END
> <From>
www.bindingDB.org

> <BindingDB Reactant_set_id>
50103605

> <Ligand InChI>
InChI=1S/C23H21FN6O2/c1-12-8-27-23-28-18-11-29(3)22(31)16-5-4-15(24)7-17(16)13(2)32-19-6-14(9-26-21(19)25)20(18)30(23)10-12/h4-10,13H,11H2,1-3H3,(H2,25,26)/t13-/m1/s1

> <Ligand InChI Key>
LOLWMDGFTABZFN-CYBMUJFWSA-N

> <BindingDB MonomerID>
50018841

> <BindingDB Ligand Name>
CHEMBL3286831

> <Target Name>
BDNF/NT-3 growth factors receptor

> <Target Source Organism According to Curator or DataSource>
Human

> <Ki (nM)>
 77

> <IC50 (nM)>


> <Kd (nM)>


> <EC50 (nM)>


> <kon (M-1-s-1)>


> <koff (s-1)>


> <pH>


> <Temp C>


> <Curation/DataSource>
ChEMBL

> <Article DOI>
10.1021/jm500261q

> <BindingDB Entry DOI>
10.7270/Q2K35W68

> <PMID>
24819116

> <PubChem AID>


> <Patent Number>


> <Authors>
Johnson, TW; Richardson, PF; Bailey, S; Brooun, A; Burke, BJ; Collins, MR; Cui, JJ; Deal, JG; Deng, YL; Dinh, D; Engstrom, LD; He, M; Hoffman, J; Hoffman, RL; Huang, Q; Kania, RS; Kath, JC; Lam, H; Lam, JL; Le, PT; Lingardo, L; Liu, W; McTigue, M; Palmer, CL; Sach, NW; Smeal, T; Smith, GL; Stewart, AE; Timofeevski, S; Zhu, H; Zhu, J; Zou, HY; Edwards, MP

> <Date of publication>
6/12/2014

> <Date in BindingDB>
2/11/2015

> <Institution>
Pfizer Inc

> <Link to Ligand in BindingDB>
http://www.bindingdb.org/bind/chemsearch/marvin/MolStructure.jsp?monomerid=50018841

> <Link to Ligand-Target Pair in BindingDB>
http://www.bindingdb.org/jsp/dbsearch/PrimarySearch_ki.jsp?energyterm=kJ/mole&tag=pol&polymerid=6476&target=BDNF%2FNT-3+growth+factors+receptor&column=ki&startPg=0&Increment=50&submit=Search

> <Link to Ligand-Target Pair in BindingDB>
http://www.bindingdb.org/jsp/dbsearch/PrimarySearch_ki.jsp?energyterm=kJ/mole&tag=r21&monomerid=50018841&enzyme=BDNF%2FNT-3+growth+factors+receptor&column=ki&startPg=0&Increment=50&submit=Search

> <Ligand HET ID in PDB>


> <PDB ID(s) for Ligand-Target Complex>


> <PubChem CID of Ligand>
89808125

> <PubChem SID of Ligand>
103929894

> <ChEBI ID of Ligand>


> <ChEMBL ID of Ligand>
CHEMBL3286831

> <DrugBank ID of Ligand>


> <IUPHAR_GRAC ID of Ligand>


> <KEGG ID of Ligand>


> <ZINC ID of Ligand>
ZINC36080038

> <Number of Protein Chains in Target (bigger than 1 implies a multichain complex)>
1

> <BindingDB Target Chain Sequence>
MSSWIRWHGPAMARLWGFCWLVVGFWRAAFACPTSCKCSASRIWCSDPSPGIVAFPRLEPNSVDPENITEIFIANQKRLEIINEDDVEAYVGLRNLTIVDSGLKFVAHKAFLKNSNLQHINFTRNKLTSLSRKHFRHLDLSELILVGNPFTCSCDIMWIKTLQEAKSSPDTQDLYCLNESSKNIPLANLQIPNCGLPSANLAAPNLTVEEGKSITLSCSVAGDPVPNMYWDVGNLVSKHMNETSHTQGSLRITNISSDDSGKQISCVAENLVGEDQDSVNLTVHFAPTITFLESPTSDHHWCIPFTVKGNPKPALQWFYNGAILNESKYICTKIHVTNHTEYHGCLQLDNPTHMNNGDYTLIAKNEYGKDEKQISAHFMGWPGIDDGANPNYPDVIYEDYGTAANDIGDTTNRSNEIPSTDVTDKTGREHLSVYAVVVIASVVGFCLLVMLFLLKLARHSKFGMKGPASVISNDDDSASPLHHISNGSNTPSSSEGGPDAVIIGMTKIPVIENPQYFGITNSQLKPDTFVQHIKRHNIVLKRELGEGAFGKVFLAECYNLCPEQDKILVAVKTLKDASDNARKDFHREAELLTNLQHEHIVKFYGVCVEGDPLIMVFEYMKHGDLNKFLRAHGPDAVLMAEGNPPTELTQSQMLHIAQQIAAGMVYLASQHFVHRDLATRNCLVGENLLVKIGDFGMSRDVYSTDYYRVGGHTMLPIRWMPPESIMYRKFTTESDVWSLGVVLWEIFTYGKQPWYQLSNNEVIECITQGRVLQRPRTCPQEVYELMLGCWQREPHMRKNIKGIHTLLQNLAKASPVYLDILG

> <PDB ID(s) of Target Chain>
1WWB,4ASZ,4AT3,4AT4,4AT5,5MO9

> <UniProt (SwissProt) Recommended Name of Target Chain>
BDNF/NT-3 growth factors receptor

> <UniProt (SwissProt) Entry Name of Target Chain>
NTRK2_HUMAN

> <UniProt (SwissProt) Primary ID of Target Chain>
Q16620

> <UniProt (SwissProt) Secondary ID(s) of Target Chain>
B1ANZ4 B4DFV9 Q16675 Q59GJ1 Q8WXJ5 Q8WXJ6 Q8WXJ7

> <UniProt (SwissProt) Alternative ID(s) of Target Chain>


> <UniProt (TrEMBL) Submitted Name of Target Chain>


> <UniProt (TrEMBL) Entry Name of Target Chain>


> <UniProt (TrEMBL) Primary ID of Target Chain>


> <UniProt (TrEMBL) Secondary ID(s) of Target Chain>


> <UniProt (TrEMBL) Alternative ID(s) of Target Chain>


$$$$

  SciTegic09261414532D

 29 31  0  0  0  0            999 V2000
   13.9663  -10.8776    0.0000 C   0  0
   14.7004  -11.2291    0.0000 C   0  0
   15.2620  -10.6339    0.0000 N   0  0
   14.8695   -9.9158    0.0000 N   0  0
   14.0654  -10.0673    0.0000 C   0  0
   13.2442  -11.2687    0.0000 C   0  0
   11.8082  -12.0537    0.0000 C   0  0
   11.8273  -11.2356    0.0000 C   0  0
   12.5453  -10.8431    0.0000 C   0  0
   13.2251  -12.0868    0.0000 C   0  0
   12.5071  -12.4793    0.0000 N   0  0
   11.0901  -12.4462    0.0000 N   0  0
   11.1284  -10.8100    0.0000 O   0  0
   11.1477   -9.9917    0.0000 C   0  0  2  0  0  0
   11.8851   -9.6376    0.0000 C   0  0
   10.4450   -9.5724    0.0000 C   0  0
    9.7305   -9.9713    0.0000 C   0  0
    9.0278   -9.5521    0.0000 C   0  0
    9.0396   -8.7338    0.0000 C   0  0
    9.7540   -8.3349    0.0000 C   0  0
   10.4567   -8.7542    0.0000 C   0  0
    8.3133   -9.9510    0.0000 F   0  0
   15.2192   -9.1772    0.0000 C   0  0
   14.8499  -12.0325    0.0000 C   0  0
   11.1703   -8.3558    0.0000 C   0  0
   11.8720   -8.7745    0.0000 O   0  0
   11.1820   -7.5387    0.0000 N   0  0
   10.4802   -7.1200    0.0000 C   0  0
   11.8955   -7.1403    0.0000 C   0  0
  6  1  1  0
  1  2  1  0
  2  3  2  0
  3  4  1  0
  4  5  1  0
  5  1  2  0
  7  8  1  0
  8  9  2  0
  9  6  1  0
  6 10  2  0
 10 11  1  0
  7 11  2  0
  7 12  1  0
 14 15  1  1
 13 14  1  0
 16 17  1  0
 17 18  2  0
 18 19  1  0
 19 20  2  0
 20 21  1  0
 16 21  2  0
 18 22  1  0
 14 16  1  0
  8 13  1  0
  4 23  1  0
  2 24  1  0
 21 25  1  0
 25 26  2  0
 25 27  1  0
 27 28  1  0
 27 29  1  0
M  END
> <From>
www.bindingDB.org

> <BindingDB Reactant_set_id>
50103568

> <Ligand InChI>
InChI=1S/C21H24FN5O2/c1-12-18(11-27(5)25-12)14-8-19(20(23)24-10-14)29-13(2)17-9-15(22)6-7-16(17)21(28)26(3)4/h6-11,13H,1-5H3,(H2,23,24)/t13-/m1/s1

> <Ligand InChI Key>
CZKOZZRYDBLSRF-CYBMUJFWSA-N

> <BindingDB MonomerID>
50018820

> <BindingDB Ligand Name>
CHEMBL3286810

> <Target Name>
ALK tyrosine kinase receptor

> <Target Source Organism According to Curator or DataSource>
Homo sapiens

> <Ki (nM)>
 310

> <IC50 (nM)>


> <Kd (nM)>


> <EC50 (nM)>


> <kon (M-1-s-1)>


> <koff (s-1)>


> <pH>


> <Temp C>


> <Curation/DataSource>
ChEMBL

> <Article DOI>
10.1021/jm500261q

> <BindingDB Entry DOI>
10.7270/Q2K35W68

> <PMID>
24819116

> <PubChem AID>


> <Patent Number>


> <Authors>
Johnson, TW; Richardson, PF; Bailey, S; Brooun, A; Burke, BJ; Collins, MR; Cui, JJ; Deal, JG; Deng, YL; Dinh, D; Engstrom, LD; He, M; Hoffman, J; Hoffman, RL; Huang, Q; Kania, RS; Kath, JC; Lam, H; Lam, JL; Le, PT; Lingardo, L; Liu, W; McTigue, M; Palmer, CL; Sach, NW; Smeal, T; Smith, GL; Stewart, AE; Timofeevski, S; Zhu, H; Zhu, J; Zou, HY; Edwards, MP

> <Date of publication>
6/12/2014

> <Date in BindingDB>
2/11/2015

> <Institution>
Pfizer Inc

> <Link to Ligand in BindingDB>
http://www.bindingdb.org/bind/chemsearch/marvin/MolStructure.jsp?monomerid=50018820

> <Link to Ligand-Target Pair in BindingDB>
http://www.bindingdb.org/jsp/dbsearch/PrimarySearch_ki.jsp?energyterm=kJ/mole&tag=pol&polymerid=5809&target=ALK+tyrosine+kinase+receptor&column=ki&startPg=0&Increment=50&submit=Search

> <Link to Ligand-Target Pair in BindingDB>
http://www.bindingdb.org/jsp/dbsearch/PrimarySearch_ki.jsp?energyterm=kJ/mole&tag=r21&monomerid=50018820&enzyme=ALK+tyrosine+kinase+receptor&column=ki&startPg=0&Increment=50&submit=Search

> <Ligand HET ID in PDB>
6YL

> <PDB ID(s) for Ligand-Target Complex>
5KZ0

> <PubChem CID of Ligand>
90644195

> <PubChem SID of Ligand>
103929873

> <ChEBI ID of Ligand>


> <ChEMBL ID of Ligand>
CHEMBL3286810

> <DrugBank ID of Ligand>


> <IUPHAR_GRAC ID of Ligand>


> <KEGG ID of Ligand>


> <ZINC ID of Ligand>
ZINC33940814

> <Number of Protein Chains in Target (bigger than 1 implies a multichain complex)>
1

> <BindingDB Target Chain Sequence>
MGAIGLLWLLPLLLSTAAVGSGMGTGQRAGSPAAGPPLQPREPLSYSRLQRKSLAVDFVVPSLFRVYARDLLLPPSSSELKAGRPEARGSLALDCAPLLRLLGPAPGVSWTAGSPAPAEARTLSRVLKGGSVRKLRRAKQLVLELGEEAILEGCVGPPGEAAVGLLQFNLSELFSWWIRQGEGRLRIRLMPEKKASEVGREGRLSAAIRASQPRLLFQIFGTGHSSLESPTNMPSPSPDYFTWNLTWIMKDSFPFLSHRSRYGLECSFDFPCELEYSPPLHDLRNQSWSWRRIPSEEASQMDLLDGPGAERSKEMPRGSFLLLNTSADSKHTILSPWMRSSSEHCTLAVSVHRHLQPSGRYIAQLLPHNEAAREILLMPTPGKHGWTVLQGRIGRPDNPFRVALEYISSGNRSLSAVDFFALKNCSEGTSPGSKMALQSSFTCWNGTVLQLGQACDFHQDCAQGEDESQMCRKLPVGFYCNFEDGFCGWTQGTLSPHTPQWQVRTLKDARFQDHQDHALLLSTTDVPASESATVTSATFPAPIKSSPCELRMSWLIRGVLRGNVSLVLVENKTGKEQGRMVWHVAAYEGLSLWQWMVLPLLDVSDRFWLQMVAWWGQGSRAIVAFDNISISLDCYLTISGEDKILQNTAPKSRNLFERNPNKELKPGENSPRQTPIFDPTVHWLFTTCGASGPHGPTQAQCNNAYQNSNLSVEVGSEGPLKGIQIWKVPATDTYSISGYGAAGGKGGKNTMMRSHGVSVLGIFNLEKDDMLYILVGQQGEDACPSTNQLIQKVCIGENNVIEEEIRVNRSVHEWAGGGGGGGGATYVFKMKDGVPVPLIIAAGGGGRAYGAKTDTFHPERLENNSSVLGLNGNSGAAGGGGGWNDNTSLLWAGKSLQEGATGGHSCPQAMKKWGWETRGGFGGGGGGCSSGGGGGGYIGGNAASNNDPEMDGEDGVSFISPLGILYTPALKVMEGHGEVNIKHYLNCSHCEVDECHMDPESHKVICFCDHGTVLAEDGVSCIVSPTPEPHLPLSLILSVVTSALVAALVLAFSGIMIVYRRKHQELQAMQMELQSPEYKLSKLRTSTIMTDYNPNYCFAGKTSSISDLKEVPRKNITLIRGLGHGAFGEVYEGQVSGMPNDPSPLQVAVKTLPEVCSEQDELDFLMEALIISKFNHQNIVRCIGVSLQSLPRFILLELMAGGDLKSFLRETRPRPSQPSSLAMLDLLHVARDIACGCQYLEENHFIHRDIAARNCLLTCPGPGRVAKIGDFGMARDIYRASYYRKGGCAMLPVKWMPPEAFMEGIFTSKTDTWSFGVLLWEIFSLGYMPYPSKSNQEVLEFVTSGGRMDPPKNCPGPVYRIMTQCWQHQPEDRPNFAIILERIEYCTQDPDVINTALPIEYGPLVEEEEKVPVRPKDPEGVPPLLVSQQAKREEERSPAAPPPLPTTSSGKAAKKPTAAEISVRVPRGPAVEGGHVNMAFSQSNPPSELHKVHGSRNKPTSLWNPTYGSWFTEKPTKKNNPIAKKEPHDRGNLGLEGSCTVPPNVATGRLPGASLLLEPSSLTANMKEVPLFRLRHFPCGNVNYGYQQQGLPLEAATAPGAGHYEDTILKSKNSMNQPGP

> <PDB ID(s) of Target Chain>
2XB7,2XBA,3AOX,5FTO,5FTQ,6E0R,6EBW,6EDL,6MX8,7JY4,7JYR,7JYS,7JYT,7LS0,7MZW,7MZY,7N00,7NX3,7NX4,8ARJ

> <UniProt (SwissProt) Recommended Name of Target Chain>
ALK tyrosine kinase receptor

> <UniProt (SwissProt) Entry Name of Target Chain>
ALK_HUMAN

> <UniProt (SwissProt) Primary ID of Target Chain>
Q9UM73

> <UniProt (SwissProt) Secondary ID(s) of Target Chain>
A6P4T4 A6P4V4 Q4ZFX9 Q53QQ6 Q53RZ4 Q59FI3 Q9Y4K6

> <UniProt (SwissProt) Alternative ID(s) of Target Chain>


> <UniProt (TrEMBL) Submitted Name of Target Chain>


> <UniProt (TrEMBL) Entry Name of Target Chain>


> <UniProt (TrEMBL) Primary ID of Target Chain>


> <UniProt (TrEMBL) Secondary ID(s) of Target Chain>


> <UniProt (TrEMBL) Alternative ID(s) of Target Chain>


$$$$
