Compound 1
Actelion Java MolfileCreator 1.0

 17 19  0  0  0  0  0  0  0  0999 V2000
    0.8660    1.0000   -0.0000 N   0  0  0  0  0  0  0  0  0  0  0  0
    0.8660   -0.0000   -0.0000 C   0  0  0  0  0  0  0  0  0  0  0  0
    1.7321    1.5000   -0.0000 C   0  0  0  0  0  0  0  0  0  0  0  0
    1.7321   -0.5000   -0.0000 N   0  0  0  0  0  0  0  0  0  0  0  0
    0.0000   -0.5000   -0.0000 N   0  0  0  0  0  0  0  0  0  0  0  0
    1.7321    2.5000   -0.0000 C   0  0  0  0  0  0  0  0  0  0  0  0
    2.5981    1.0000   -0.0000 C   0  0  0  0  0  0  0  0  0  0  0  0
    2.5981   -0.0000   -0.0000 C   0  0  0  0  0  0  0  0  0  0  0  0
    2.5981    3.0000   -0.0000 C   0  0  0  0  0  0  0  0  0  0  0  0
    0.8660    3.0000   -0.0000 C   0  0  0  0  0  0  0  0  0  0  0  0
    2.5981    4.0000   -0.0000 C   0  0  0  0  0  0  0  0  0  0  0  0
    0.8660    4.0000   -0.0000 C   0  0  0  0  0  0  0  0  0  0  0  0
    3.3412    4.6691   -0.0000 N   0  0  0  0  0  0  0  0  0  0  0  0
    1.7321    4.5000   -0.0000 C   0  0  0  0  0  0  0  0  0  0  0  0
    2.9345    5.5827   -0.0000 N   0  0  0  0  0  0  0  0  0  0  0  0
    1.9400    5.4781   -0.0000 C   0  0  0  0  0  0  0  0  0  0  0  0
    1.2708    6.2213   -0.0000 N   0  0  0  0  0  0  0  0  0  0  0  0
  1  2  2  0  0  0  0
  1  3  1  0  0  0  0
  2  4  1  0  0  0  0
  2  5  1  0  0  0  0
  3  6  1  0  0  0  0
  3  7  2  0  0  0  0
  4  8  2  0  0  0  0
  6  9  2  0  0  0  0
  6 10  1  0  0  0  0
  9 11  1  0  0  0  0
 10 12  2  0  0  0  0
 11 13  1  0  0  0  0
 11 14  2  0  0  0  0
 13 15  1  0  0  0  0
 14 16  1  0  0  0  0
 16 17  1  0  0  0  0
  7  8  1  0  0  0  0
 12 14  1  0  0  0  0
 15 16  2  0  0  0  0
M  END
>  <BindingDB Reactant_set_id>
50628047

>  <Target Name>
3-phosphoinositide-dependent protein kinase 1

>  <IC50 (nM)>
370

$$$$
Compound 2
Actelion Java MolfileCreator 1.0

 16 18  0  0  0  0  0  0  0  0999 V2000
    0.8660    1.0000   -0.0000 N   0  0  0  0  0  0  0  0  0  0  0  0
    0.8660   -0.0000   -0.0000 C   0  0  0  0  0  0  0  0  0  0  0  0
    1.7321    1.5000   -0.0000 C   0  0  0  0  0  0  0  0  0  0  0  0
    0.0000   -0.5000   -0.0000 C   0  0  0  0  0  0  0  0  0  0  0  0
    1.7321   -0.5000   -0.0000 C   0  0  0  0  0  0  0  0  0  0  0  0
    2.5981    1.0000   -0.0000 N   0  0  0  0  0  0  0  0  0  0  0  0
   -0.8660    0.0000   -0.0000 C   0  0  0  0  0  0  0  0  0  0  0  0
   -0.0000   -1.5000   -0.0000 C   0  0  0  0  0  0  0  0  0  0  0  0
    2.5981   -0.0000   -0.0000 C   0  0  0  0  0  0  0  0  0  0  0  0
   -1.7321   -0.5000   -0.0000 C   0  0  0  0  0  0  0  0  0  0  0  0
   -0.8660   -2.0000   -0.0000 C   0  0  0  0  0  0  0  0  0  0  0  0
   -2.6831   -0.1910   -0.0000 N   0  0  0  0  0  0  0  0  0  0  0  0
   -1.7321   -1.5000   -0.0000 C   0  0  0  0  0  0  0  0  0  0  0  0
   -3.2709   -1.0000   -0.0000 N   0  0  0  0  0  0  0  0  0  0  0  0
   -2.6831   -1.8090   -0.0000 C   0  0  0  0  0  0  0  0  0  0  0  0
   -2.9921   -2.7601   -0.0000 N   0  0  0  0  0  0  0  0  0  0  0  0
  1  2  2  0  0  0  0
  1  3  1  0  0  0  0
  2  4  1  0  0  0  0
  2  5  1  0  0  0  0
  3  6  2  0  0  0  0
  4  7  2  0  0  0  0
  4  8  1  0  0  0  0
  5  9  2  0  0  0  0
  7 10  1  0  0  0  0
  8 11  2  0  0  0  0
 10 12  1  0  0  0  0
 10 13  2  0  0  0  0
 12 14  1  0  0  0  0
 13 15  1  0  0  0  0
 15 16  1  0  0  0  0
  6  9  1  0  0  0  0
 11 13  1  0  0  0  0
 14 15  2  0  0  0  0
M  END
>  <BindingDB Reactant_set_id>
50628048

>  <Target Name>
3-phosphoinositide-dependent protein kinase 1

>  <IC50 (nM)>
2670

$$$$
Compound 3
Actelion Java MolfileCreator 1.0

 17 19  0  0  0  0  0  0  0  0999 V2000
    0.8660    1.0000   -0.0000 N   0  0  0  0  0  0  0  0  0  0  0  0
    0.8660   -0.0000   -0.0000 C   0  0  0  0  0  0  0  0  0  0  0  0
    1.7321    1.5000   -0.0000 C   0  0  0  0  0  0  0  0  0  0  0  0
    0.0000   -0.5000   -0.0000 N   0  0  0  0  0  0  0  0  0  0  0  0
    1.7321   -0.5000   -0.0000 C   0  0  0  0  0  0  0  0  0  0  0  0
    2.5981    1.0000   -0.0000 C   0  0  0  0  0  0  0  0  0  0  0  0
    2.5981   -0.0000   -0.0000 C   0  0  0  0  0  0  0  0  0  0  0  0
    3.4641   -0.5000   -0.0000 C   0  0  0  0  0  0  0  0  0  0  0  0
    3.4641   -1.5000   -0.0000 C   0  0  0  0  0  0  0  0  0  0  0  0
    4.3301   -0.0000   -0.0000 C   0  0  0  0  0  0  0  0  0  0  0  0
    4.3301   -2.0000   -0.0000 C   0  0  0  0  0  0  0  0  0  0  0  0
    5.1962   -0.5000   -0.0000 C   0  0  0  0  0  0  0  0  0  0  0  0
    4.5380   -2.9781   -0.0000 N   0  0  0  0  0  0  0  0  0  0  0  0
    5.1962   -1.5000   -0.0000 C   0  0  0  0  0  0  0  0  0  0  0  0
    5.5326   -3.0827   -0.0000 N   0  0  0  0  0  0  0  0  0  0  0  0
    5.9393   -2.1691   -0.0000 C   0  0  0  0  0  0  0  0  0  0  0  0
    6.9174   -1.9612   -0.0000 N   0  0  0  0  0  0  0  0  0  0  0  0
  1  2  2  0  0  0  0
  1  3  1  0  0  0  0
  2  4  1  0  0  0  0
  2  5  1  0  0  0  0
  3  6  2  0  0  0  0
  5  7  2  0  0  0  0
  7  8  1  0  0  0  0
  8  9  2  0  0  0  0
  8 10  1  0  0  0  0
  9 11  1  0  0  0  0
 10 12  2  0  0  0  0
 11 13  1  0  0  0  0
 11 14  2  0  0  0  0
 13 15  1  0  0  0  0
 14 16  1  0  0  0  0
 16 17  1  0  0  0  0
  6  7  1  0  0  0  0
 12 14  1  0  0  0  0
 15 16  2  0  0  0  0
M  END
>  <BindingDB Reactant_set_id>
50628049

>  <Target Name>
3-phosphoinositide-dependent protein kinase 1

>  <IC50 (nM)>
7280

$$$$
Compound 4
Actelion Java MolfileCreator 1.0

 17 19  0  0  0  0  0  0  0  0999 V2000
    0.8660    1.0000   -0.0000 N   0  0  0  0  0  0  0  0  0  0  0  0
    0.8660   -0.0000   -0.0000 C   0  0  0  0  0  0  0  0  0  0  0  0
    1.7321    1.5000   -0.0000 C   0  0  0  0  0  0  0  0  0  0  0  0
    0.0000   -0.5000   -0.0000 N   0  0  0  0  0  0  0  0  0  0  0  0
    1.7321   -0.5000   -0.0000 C   0  0  0  0  0  0  0  0  0  0  0  0
    1.7321    2.5000   -0.0000 C   0  0  0  0  0  0  0  0  0  0  0  0
    2.5981    1.0000   -0.0000 C   0  0  0  0  0  0  0  0  0  0  0  0
    2.5981   -0.0000   -0.0000 C   0  0  0  0  0  0  0  0  0  0  0  0
    2.5981    3.0000   -0.0000 C   0  0  0  0  0  0  0  0  0  0  0  0
    0.8660    3.0000   -0.0000 C   0  0  0  0  0  0  0  0  0  0  0  0
    2.5981    4.0000   -0.0000 C   0  0  0  0  0  0  0  0  0  0  0  0
    0.8660    4.0000   -0.0000 C   0  0  0  0  0  0  0  0  0  0  0  0
    3.3412    4.6691   -0.0000 N   0  0  0  0  0  0  0  0  0  0  0  0
    1.7321    4.5000   -0.0000 C   0  0  0  0  0  0  0  0  0  0  0  0
    2.9345    5.5827   -0.0000 N   0  0  0  0  0  0  0  0  0  0  0  0
    1.9400    5.4781   -0.0000 C   0  0  0  0  0  0  0  0  0  0  0  0
    1.2708    6.2213   -0.0000 N   0  0  0  0  0  0  0  0  0  0  0  0
  1  2  2  0  0  0  0
  1  3  1  0  0  0  0
  2  4  1  0  0  0  0
  2  5  1  0  0  0  0
  3  6  1  0  0  0  0
  3  7  2  0  0  0  0
  5  8  2  0  0  0  0
  6  9  2  0  0  0  0
  6 10  1  0  0  0  0
  9 11  1  0  0  0  0
 10 12  2  0  0  0  0
 11 13  1  0  0  0  0
 11 14  2  0  0  0  0
 13 15  1  0  0  0  0
 14 16  1  0  0  0  0
 16 17  1  0  0  0  0
  7  8  1  0  0  0  0
 12 14  1  0  0  0  0
 15 16  2  0  0  0  0
M  END
>  <BindingDB Reactant_set_id>
50628050

>  <Target Name>
3-phosphoinositide-dependent protein kinase 1

>  <IC50 (nM)>
13600

$$$$
Compound 5
Actelion Java MolfileCreator 1.0

 16 18  0  0  0  0  0  0  0  0999 V2000
    2.5981    1.0000   -0.0000 N   0  0  0  0  0  0  0  0  0  0  0  0
    1.7321    1.5000   -0.0000 C   0  0  0  0  0  0  0  0  0  0  0  0
    2.5981   -0.0000   -0.0000 C   0  0  0  0  0  0  0  0  0  0  0  0
    0.8660    1.0000   -0.0000 C   0  0  0  0  0  0  0  0  0  0  0  0
    1.7321   -0.5000   -0.0000 C   0  0  0  0  0  0  0  0  0  0  0  0
    0.8660   -0.0000   -0.0000 C   0  0  0  0  0  0  0  0  0  0  0  0
    0.0000   -0.5000   -0.0000 C   0  0  0  0  0  0  0  0  0  0  0  0
   -0.8660    0.0000   -0.0000 C   0  0  0  0  0  0  0  0  0  0  0  0
   -0.0000   -1.5000   -0.0000 C   0  0  0  0  0  0  0  0  0  0  0  0
   -1.7321   -0.5000   -0.0000 C   0  0  0  0  0  0  0  0  0  0  0  0
   -0.8660   -2.0000   -0.0000 C   0  0  0  0  0  0  0  0  0  0  0  0
   -2.6831   -0.1910   -0.0000 N   0  0  0  0  0  0  0  0  0  0  0  0
   -1.7321   -1.5000   -0.0000 C   0  0  0  0  0  0  0  0  0  0  0  0
   -3.2709   -1.0000   -0.0000 N   0  0  0  0  0  0  0  0  0  0  0  0
   -2.6831   -1.8090   -0.0000 C   0  0  0  0  0  0  0  0  0  0  0  0
   -2.9921   -2.7601   -0.0000 N   0  0  0  0  0  0  0  0  0  0  0  0
  1  2  2  0  0  0  0
  1  3  1  0  0  0  0
  2  4  1  0  0  0  0
  3  5  2  0  0  0  0
  4  6  2  0  0  0  0
  6  7  1  0  0  0  0
  7  8  2  0  0  0  0
  7  9  1  0  0  0  0
  8 10  1  0  0  0  0
  9 11  2  0  0  0  0
 10 12  1  0  0  0  0
 10 13  2  0  0  0  0
 12 14  1  0  0  0  0
 13 15  1  0  0  0  0
 15 16  1  0  0  0  0
  5  6  1  0  0  0  0
 11 13  1  0  0  0  0
 14 15  2  0  0  0  0
M  END
>  <BindingDB Reactant_set_id>
50628053

>  <Target Name>
3-phosphoinositide-dependent protein kinase 1

>  <IC50 (nM)>
13200

$$$$
Compound 6
Actelion Java MolfileCreator 1.0

 17 19  0  0  0  0  0  0  0  0999 V2000
    1.7796   -0.4067   -0.0000 N   0  0  0  0  0  0  0  0  0  0  0  0
    2.4487    0.3364   -0.0000 N   0  0  0  0  0  0  0  0  0  0  0  0
    0.8660   -0.0000   -0.0000 C   0  0  0  0  0  0  0  0  0  0  0  0
    1.9487    1.2024   -0.0000 C   0  0  0  0  0  0  0  0  0  0  0  0
    0.0000   -0.5000   -0.0000 N   0  0  0  0  0  0  0  0  0  0  0  0
    0.9706    0.9945   -0.0000 C   0  0  0  0  0  0  0  0  0  0  0  0
    2.2577    2.1535   -0.0000 C   0  0  0  0  0  0  0  0  0  0  0  0
    0.3014    1.7377   -0.0000 C   0  0  0  0  0  0  0  0  0  0  0  0
    1.5886    2.8966   -0.0000 C   0  0  0  0  0  0  0  0  0  0  0  0
    0.6104    2.6887   -0.0000 C   0  0  0  0  0  0  0  0  0  0  0  0
    1.8976    3.8477   -0.0000 C   0  0  0  0  0  0  0  0  0  0  0  0
    2.8758    4.0556   -0.0000 C   0  0  0  0  0  0  0  0  0  0  0  0
    1.2285    4.5908   -0.0000 C   0  0  0  0  0  0  0  0  0  0  0  0
    3.1848    5.0067   -0.0000 C   0  0  0  0  0  0  0  0  0  0  0  0
    1.5375    5.5419   -0.0000 C   0  0  0  0  0  0  0  0  0  0  0  0
    4.1629    5.2146   -0.0000 N   0  0  0  0  0  0  0  0  0  0  0  0
    2.5156    5.7498   -0.0000 C   0  0  0  0  0  0  0  0  0  0  0  0
  1  2  1  0  0  0  0
  1  3  2  0  0  0  0
  2  4  1  0  0  0  0
  3  5  1  0  0  0  0
  3  6  1  0  0  0  0
  4  7  1  0  0  0  0
  6  8  1  0  0  0  0
  7  9  2  0  0  0  0
  8 10  2  0  0  0  0
  9 11  1  0  0  0  0
 11 12  2  0  0  0  0
 11 13  1  0  0  0  0
 12 14  1  0  0  0  0
 13 15  2  0  0  0  0
 14 16  1  0  0  0  0
 14 17  2  0  0  0  0
  4  6  2  0  0  0  0
  9 10  1  0  0  0  0
 15 17  1  0  0  0  0
M  END
>  <BindingDB Reactant_set_id>
50628051

>  <Target Name>
3-phosphoinositide-dependent protein kinase 1

>  <IC50 (nM)>
21200

$$$$
Compound 7
Actelion Java MolfileCreator 1.0

 16 18  0  0  0  0  0  0  0  0999 V2000
    0.8660    1.0000   -0.0000 N   0  0  0  0  0  0  0  0  0  0  0  0
    0.8660   -0.0000   -0.0000 C   0  0  0  0  0  0  0  0  0  0  0  0
    1.7321    1.5000   -0.0000 C   0  0  0  0  0  0  0  0  0  0  0  0
    0.0000   -0.5000   -0.0000 C   0  0  0  0  0  0  0  0  0  0  0  0
    1.7321   -0.5000   -0.0000 C   0  0  0  0  0  0  0  0  0  0  0  0
    2.5981    1.0000   -0.0000 C   0  0  0  0  0  0  0  0  0  0  0  0
   -0.8660    0.0000   -0.0000 C   0  0  0  0  0  0  0  0  0  0  0  0
   -0.0000   -1.5000   -0.0000 C   0  0  0  0  0  0  0  0  0  0  0  0
    2.5981   -0.0000   -0.0000 C   0  0  0  0  0  0  0  0  0  0  0  0
   -1.7321   -0.5000   -0.0000 C   0  0  0  0  0  0  0  0  0  0  0  0
   -0.8660   -2.0000   -0.0000 C   0  0  0  0  0  0  0  0  0  0  0  0
   -2.6831   -0.1910   -0.0000 N   0  0  0  0  0  0  0  0  0  0  0  0
   -1.7321   -1.5000   -0.0000 C   0  0  0  0  0  0  0  0  0  0  0  0
   -3.2709   -1.0000   -0.0000 N   0  0  0  0  0  0  0  0  0  0  0  0
   -2.6831   -1.8090   -0.0000 C   0  0  0  0  0  0  0  0  0  0  0  0
   -2.9921   -2.7601   -0.0000 N   0  0  0  0  0  0  0  0  0  0  0  0
  1  2  2  0  0  0  0
  1  3  1  0  0  0  0
  2  4  1  0  0  0  0
  2  5  1  0  0  0  0
  3  6  2  0  0  0  0
  4  7  2  0  0  0  0
  4  8  1  0  0  0  0
  5  9  2  0  0  0  0
  7 10  1  0  0  0  0
  8 11  2  0  0  0  0
 10 12  1  0  0  0  0
 10 13  2  0  0  0  0
 12 14  1  0  0  0  0
 13 15  1  0  0  0  0
 15 16  1  0  0  0  0
  6  9  1  0  0  0  0
 11 13  1  0  0  0  0
 14 15  2  0  0  0  0
M  END
>  <BindingDB Reactant_set_id>
50628052

>  <Target Name>
3-phosphoinositide-dependent protein kinase 1

>  <IC50 (nM)>
>25100

$$$$
