
  Mrv0541 11231414432D          

 17 19  0  0  0  0            999 V2000
   11.5568   -9.5021    0.0000 C   0  0  0  0  0  0  0  0  0  0  0  0
   11.5556  -10.3285    0.0000 C   0  0  0  0  0  0  0  0  0  0  0  0
   12.2697  -10.7410    0.0000 C   0  0  0  0  0  0  0  0  0  0  0  0
   12.2679   -9.0898    0.0000 C   0  0  0  0  0  0  0  0  0  0  0  0
   12.9824   -9.4984    0.0000 C   0  0  0  0  0  0  0  0  0  0  0  0
   12.9873  -10.3286    0.0000 C   0  0  0  0  0  0  0  0  0  0  0  0
   13.7784  -10.5805    0.0000 N   0  0  0  0  0  0  0  0  0  0  0  0
   14.2624   -9.9060    0.0000 N   0  0  0  0  0  0  0  0  0  0  0  0
   13.7705   -9.2374    0.0000 C   0  0  0  0  0  0  0  0  0  0  0  0
   14.1762   -8.5199    0.0000 N   0  0  0  0  0  0  0  0  0  0  0  0
   10.8436  -10.7403    0.0000 C   0  0  0  0  0  0  0  0  0  0  0  0
   10.1298  -10.3260    0.0000 C   0  0  0  0  0  0  0  0  0  0  0  0
    9.4163  -10.7368    0.0000 C   0  0  0  0  0  0  0  0  0  0  0  0
    9.4152  -11.5618    0.0000 N   0  0  0  0  0  0  0  0  0  0  0  0
   10.1336  -11.9742    0.0000 C   0  0  0  0  0  0  0  0  0  0  0  0
   10.8443  -11.5611    0.0000 N   0  0  0  0  0  0  0  0  0  0  0  0
   10.1358  -12.7983    0.0000 N   0  0  0  0  0  0  0  0  0  0  0  0
  7  8  1  0  0  0  0
  8  9  2  0  0  0  0
  9  5  1  0  0  0  0
  4  1  1  0  0  0  0
  9 10  1  0  0  0  0
  5  6  1  0  0  0  0
 11 12  2  0  0  0  0
  2  3  1  0  0  0  0
 12 13  1  0  0  0  0
  3  6  2  0  0  0  0
 13 14  2  0  0  0  0
  1  2  2  0  0  0  0
 14 15  1  0  0  0  0
  5  4  2  0  0  0  0
 15 16  2  0  0  0  0
 16 11  1  0  0  0  0
  2 11  1  0  0  0  0
  6  7  1  0  0  0  0
 15 17  1  0  0  0  0
M  END
> <From>
www.bindingDB.org

> <BindingDB Reactant_set_id>
50172036

> <Ligand InChI>
InChI=1S/C11H10N6/c12-10-7-2-1-6(5-9(7)16-17-10)8-3-4-14-11(13)15-8/h1-5H,(H3,12,16,17)(H2,13,14,15)

> <Ligand InChI Key>
QVWIVWPIJUYRRF-UHFFFAOYSA-N

> <BindingDB MonomerID>
50339006

> <BindingDB Ligand Name>
6-(2-Amino-4-pyrimidinyl)-1H-indazol-3-amine::6-(2-aminopyrimidin-4-yl)-1H-indazol-3-amine::CHEMBL1688215

> <Target Name>
Inhibitor of nuclear factor kappa-B kinase subunit alpha

> <Target Source Organism According to Curator or DataSource>
Homo sapiens

> <Ki (nM)>


> <IC50 (nM)>
 100

> <Kd (nM)>


> <EC50 (nM)>


> <kon (M-1-s-1)>


> <koff (s-1)>


> <pH>


> <Temp C>


> <Curation/DataSource>
ChEMBL

> <Article DOI>
10.1021/ml100136n

> <BindingDB Entry DOI>
10.7270/Q22807WJ

> <PMID>
24900229

> <PubChem AID>


> <Patent Number>


> <Authors>
Medina, JR; Blackledge, CW; Heerding, DA; Campobasso, N; Ward, P; Briand, J; Wright, L; Axten, JM.

> <Date of publication>
12/28/2010

> <Date in BindingDB>
8/24/2011

> <Institution>
TBA

> <Link to Ligand in BindingDB>
http://www.bindingdb.org/bind/chemsearch/marvin/MolStructure.jsp?monomerid=50339006

> <Link to Ligand-Target Pair in BindingDB>
http://www.bindingdb.org/jsp/dbsearch/PrimarySearch_ki.jsp?energyterm=kJ/mole&tag=pol&polymerid=50005048&target=Inhibitor+of+nuclear+factor+kappa-B+kinase+subunit+alpha&column=ki&startPg=0&Increment=50&submit=Search

> <Link to Ligand-Target Pair in BindingDB>
http://www.bindingdb.org/jsp/dbsearch/PrimarySearch_ki.jsp?energyterm=kJ/mole&tag=r21&monomerid=50339006&enzyme=Inhibitor+of+nuclear+factor+kappa-B+kinase+subunit+alpha&column=ki&startPg=0&Increment=50&submit=Search

> <Ligand HET ID in PDB>
JMZ

> <PDB ID(s) for Ligand-Target Complex>
3NUN

> <PubChem CID of Ligand>
46215814

> <PubChem SID of Ligand>
125089108

> <ChEBI ID of Ligand>


> <ChEMBL ID of Ligand>
CHEMBL1688215

> <DrugBank ID of Ligand>


> <IUPHAR_GRAC ID of Ligand>


> <KEGG ID of Ligand>


> <ZINC ID of Ligand>
ZINC66123699

> <Number of Protein Chains in Target (bigger than 1 implies a multichain complex)>
1

> <BindingDB Target Chain Sequence>
MERPPGLRPGAGGPWEMRERLGTGGFGNVCLYQHRELDLKIAIKSCRLELSTKNRERWCHEIQIMKKLNHANVVKACDVPEELNILIHDVPLLAMEYCSGGDLRKLLNKPENCCGLKESQILSLLSDIGSGIRYLHENKIIHRDLKPENIVLQDVGGKIIHKIIDLGYAKDVDQGSLCTSFVGTLQYLAPELFENKPYTATVDYWSFGTMVFECIAGYRPFLHHLQPFTWHEKIKKKDPKCIFACEEMSGEVRFSSHLPQPNSLCSLVVEPMENWLQLMLNWDPQQRGGPVDLTLKQPRCFVLMDHILNLKIVHILNMTSAKIISFLLPPDESLHSLQSRIERETGINTGSQELLSETGISLDPRKPASQCVLDGVRGCDSYMVYLFDKSKTVYEGPFASRSLSDCVNYIVQDSKIQLPIIQLRKVWAEAVHYVSGLKEDYSRLFQGQRAAMLSLLRYNANLTKMKNTLISASQQLKAKLEFFHKSIQLDLERYSEQMTYGISSEKMLKAWKEMEEKAIHYAEVGVIGYLEDQIMSLHAEIMELQKSPYGRRQGDLMESLEQRAIDLYKQLKHRPSDHSYSDSTEMVKIIVHTVQSQDRVLKELFGHLSKLLGCKQKIIDLLPKVEVALSNIKEADNTVMFMQGKRQKEIWHLLKIACTQSSARSLVGSSLEGAVTPQTSAWLPPTSAEHDHSLSCVVTPQDGETSAQMIEENLNCLGHLSTIIHEANEEQGNSMMNLDWSWLTE

> <PDB ID(s) of Target Chain>


> <UniProt (SwissProt) Recommended Name of Target Chain>
Inhibitor of nuclear factor kappa-B kinase subunit alpha

> <UniProt (SwissProt) Entry Name of Target Chain>
IKKA_HUMAN

> <UniProt (SwissProt) Primary ID of Target Chain>
O15111

> <UniProt (SwissProt) Secondary ID(s) of Target Chain>
O14666 Q13132 Q5W0I4 Q92467

> <UniProt (SwissProt) Alternative ID(s) of Target Chain>


> <UniProt (TrEMBL) Submitted Name of Target Chain>


> <UniProt (TrEMBL) Entry Name of Target Chain>


> <UniProt (TrEMBL) Primary ID of Target Chain>


> <UniProt (TrEMBL) Secondary ID(s) of Target Chain>


> <UniProt (TrEMBL) Alternative ID(s) of Target Chain>


$$$$

  Mrv0541 11231414432D          

 17 19  0  0  0  0            999 V2000
   11.5568   -9.5021    0.0000 C   0  0  0  0  0  0  0  0  0  0  0  0
   11.5556  -10.3285    0.0000 C   0  0  0  0  0  0  0  0  0  0  0  0
   12.2697  -10.7410    0.0000 C   0  0  0  0  0  0  0  0  0  0  0  0
   12.2679   -9.0898    0.0000 C   0  0  0  0  0  0  0  0  0  0  0  0
   12.9824   -9.4984    0.0000 C   0  0  0  0  0  0  0  0  0  0  0  0
   12.9873  -10.3286    0.0000 C   0  0  0  0  0  0  0  0  0  0  0  0
   13.7784  -10.5805    0.0000 N   0  0  0  0  0  0  0  0  0  0  0  0
   14.2624   -9.9060    0.0000 N   0  0  0  0  0  0  0  0  0  0  0  0
   13.7705   -9.2374    0.0000 C   0  0  0  0  0  0  0  0  0  0  0  0
   14.1762   -8.5199    0.0000 N   0  0  0  0  0  0  0  0  0  0  0  0
   10.8436  -10.7403    0.0000 C   0  0  0  0  0  0  0  0  0  0  0  0
   10.1298  -10.3260    0.0000 C   0  0  0  0  0  0  0  0  0  0  0  0
    9.4163  -10.7368    0.0000 C   0  0  0  0  0  0  0  0  0  0  0  0
    9.4152  -11.5618    0.0000 N   0  0  0  0  0  0  0  0  0  0  0  0
   10.1336  -11.9742    0.0000 C   0  0  0  0  0  0  0  0  0  0  0  0
   10.8443  -11.5611    0.0000 N   0  0  0  0  0  0  0  0  0  0  0  0
   10.1358  -12.7983    0.0000 N   0  0  0  0  0  0  0  0  0  0  0  0
  7  8  1  0  0  0  0
  8  9  2  0  0  0  0
  9  5  1  0  0  0  0
  4  1  1  0  0  0  0
  9 10  1  0  0  0  0
  5  6  1  0  0  0  0
 11 12  2  0  0  0  0
  2  3  1  0  0  0  0
 12 13  1  0  0  0  0
  3  6  2  0  0  0  0
 13 14  2  0  0  0  0
  1  2  2  0  0  0  0
 14 15  1  0  0  0  0
  5  4  2  0  0  0  0
 15 16  2  0  0  0  0
 16 11  1  0  0  0  0
  2 11  1  0  0  0  0
  6  7  1  0  0  0  0
 15 17  1  0  0  0  0
M  END
> <From>
www.bindingDB.org

> <BindingDB Reactant_set_id>
50628055

> <Ligand InChI>
InChI=1S/C11H10N6/c12-10-7-2-1-6(5-9(7)16-17-10)8-3-4-14-11(13)15-8/h1-5H,(H3,12,16,17)(H2,13,14,15)

> <Ligand InChI Key>
QVWIVWPIJUYRRF-UHFFFAOYSA-N

> <BindingDB MonomerID>
50339006

> <BindingDB Ligand Name>
6-(2-Amino-4-pyrimidinyl)-1H-indazol-3-amine::6-(2-aminopyrimidin-4-yl)-1H-indazol-3-amine::CHEMBL1688215

> <Target Name>
Cyclin-dependent kinase 2

> <Target Source Organism According to Curator or DataSource>
Homo sapiens

> <Ki (nM)>


> <IC50 (nM)>
 280

> <Kd (nM)>


> <EC50 (nM)>


> <kon (M-1-s-1)>


> <koff (s-1)>


> <pH>


> <Temp C>


> <Curation/DataSource>
ChEMBL

> <Article DOI>
10.1021/ml100136n

> <BindingDB Entry DOI>
10.7270/Q22807WJ

> <PMID>
24900229

> <PubChem AID>


> <Patent Number>


> <Authors>
Medina, JR; Blackledge, CW; Heerding, DA; Campobasso, N; Ward, P; Briand, J; Wright, L; Axten, JM.

> <Date of publication>
12/28/2010

> <Date in BindingDB>
8/24/2011

> <Institution>
TBA

> <Link to Ligand in BindingDB>
http://www.bindingdb.org/bind/chemsearch/marvin/MolStructure.jsp?monomerid=50339006

> <Link to Ligand-Target Pair in BindingDB>
http://www.bindingdb.org/jsp/dbsearch/PrimarySearch_ki.jsp?energyterm=kJ/mole&tag=pol&polymerid=796&target=Cyclin-dependent+kinase+2&column=ki&startPg=0&Increment=50&submit=Search

> <Link to Ligand-Target Pair in BindingDB>
http://www.bindingdb.org/jsp/dbsearch/PrimarySearch_ki.jsp?energyterm=kJ/mole&tag=r21&monomerid=50339006&enzyme=Cyclin-dependent+kinase+2&column=ki&startPg=0&Increment=50&submit=Search

> <Ligand HET ID in PDB>
JMZ

> <PDB ID(s) for Ligand-Target Complex>
3NUN

> <PubChem CID of Ligand>
46215814

> <PubChem SID of Ligand>
125089108

> <ChEBI ID of Ligand>


> <ChEMBL ID of Ligand>
CHEMBL1688215

> <DrugBank ID of Ligand>


> <IUPHAR_GRAC ID of Ligand>


> <KEGG ID of Ligand>


> <ZINC ID of Ligand>
ZINC66123699

> <Number of Protein Chains in Target (bigger than 1 implies a multichain complex)>
1

> <BindingDB Target Chain Sequence>
MENFQKVEKIGEGTYGVVYKARNKLTGEVVALKKIRLDTETEGVPSTAIREISLLKELNHPNIVKLLDVIHTENKLYLVFEFLHQDLKKFMDASALTGIPLPLIKSYLFQLLQGLAFCHSHRVLHRDLKPQNLLINTEGAIKLADFGLARAFGVPVRTYTHEVVTLWYRAPEILLGCKYYSTAVDIWSLGCIFAEMVTRRALFPGDSEIDQLFRIFRTLGTPDEVVWPGVTSMPDYKPSFPKWARQDFSKVVPPLDEDGRSLLSQMLHYDPNKRISAKAALAHPFFQDVTKPVPHLRL

> <PDB ID(s) of Target Chain>
1CKP,1DI8,1DM2,1E1V,1E1X,1E9H,1F5Q,1FIN,1FQ1,1FVT,1FVV,1G5S,1GIH,1GY3,1GZ8,1H00,1H01,1H07,1H08,1H0V,1H0W,1H1P,1H1Q,1H1R,1H1S,1H24,1H25,1H26,1H27,1H28,1HCK,1HCL,1JST,1JSU,1JSV,1JVP,1KE5,1KE6,1KE7,1KE8,1KE9,1OGU,1OI9,1OIQ,1OIR,1OIU,1OIY,1OKV,1OKW,1OL1,1OL2,1P2A,1P5E,1PF8,1PKD,1PW2,1PXI,1PXJ,1PXK,1PXL,1PXM,1PXN,1PXO,1PXP,1PYE,1QMZ,1R78,1URC,1URW,1V1K,1VYW,1VYZ,1W0X,1W8C,1W98,1WCC,1Y8Y,1Y91,1YKR,2A0C,2A4L,2B52,2B53,2B54,2B55,2BHE,2BHH,2BKZ,2BPM,2BTR,2BTS,2C4G,2C5N,2C5O,2C5V,2C5X,2C5Y,2C68,2C69,2C6I,2C6K,2C6L,2C6M,2C6O,2C6T,2CCH,2CCI,2CJM,2CLX,2DUV,2EXM,2FVD,2G9X,2I40,2J9M,2JGZ,2R3F,2R3G,2R3H,2R3I,2R3J,2R3K,2R3L,2R3M,2R3N,2R3O,2R3P,2R3Q,2R3R,2R64,2UUE,2UZB,2UZD,2UZE,2UZL,2UZN,2UZO,2V0D,2V22,2VTA,2VTH,2VTI,2VTJ,2VTL,2VTM,2VTN,2VTO,2VTP,2VTQ,2VTR,2VTS,2VTT,2VU3,2VV9,2W05,2W06,2W17,2W1H,2WEV,2WFY,2WHB,2WIH,2WIP,2WMA,2WMB,2WPA,2WXV,2X1N,2XMY,2XNB,3BHT,3BHU,3BHV,3DDP,3DDQ,3DOG,3EID,3EJ1,3EOC,3EZR,3EZV,3F5X,3FZ1,3IG7,3IGG,3LE6,3LFN,3LFQ,3LFS,3MY5,3NS9,3PJ8,3PXF,3PXQ,3PXR,3PXY,3PXZ,3PY0,3PY1,3QHR,3QHW,3QL8,3QQF,3QQG,3QQH,3QQJ,3QQK,3QQL,3QRT,3QRU,3QTQ,3QTR,3QTS,3QTU,3QTW,3QTX,3QTZ,3QU0,3QWJ,3QWK,3QX2,3QX4,3QXO,3QXP,3QZF,3QZG,3QZH,3QZI,3R1Q,3R1S,3R1Y,3R28,3R6X,3R71,3R73,3R7E,3R7I,3R7U,3R7V,3R7Y,3R83,3R8L,3R8M,3R8P,3R8U,3R8V,3R8Z,3R9D,3R9H,3R9N,3R9O,3RAH,3RAI,3RAK,3RAL,3RJC,3RK5,3RK7,3RK9,3RKB,3RM6,3RM7,3RMF,3RNI,3ROY,3RPO,3RPR,3RPV,3RPY,3RZB,3S00,3S0O,3S1H,3S2P,3SQQ,3SW4,3SW7,3TI1,3TIY,3TIZ,3TNW,3ULI,3UNJ,3UNK,3WBL,4ACM,4BCK,4BCM,4BCN,4BCO,4BCP,4BCQ,4BGH,4BZD,4CFM,4CFN,4CFU,4CFV,4CFW,4CFX,4D1X,4D1Z,4EK3,4EK4,4EK5,4EK6,4EK8,4EOQ,4EOR,4EOS,4ERW,4EZ3,4EZ7,4FKG,4FKI,4FKJ,4FKL,4FKO,4FKP,4FKQ,4FKR,4FKS,4FKT,4FKU,4FKV,4FKW,4FX3,4GCJ,4I3Z,4II5,4KD1,4LYN,4NJ3,4RJ3,5A14,5AND,5ANE,5ANG,5ANI,5ANJ,5ANK,5ANO,5CYI,5D1J,5FP5,5FP6,5IEV,5IEX,5IEY,5IF1,5JQ5,5JQ8,5K4J,5L2W,5LMK,5MHQ,5NEV,5OO0,5OSJ,5UQ1,5UQ2,5UQ3,6ATH,6GUB,6GUC,6GUE,6GUF,6GUH,6GUK,6GVA,6INL,6JGM,6OQI,6P3W,6Q3B,6Q3C,6Q3F,6Q48,6Q49,6Q4A,6Q4B,6Q4C,6Q4D,6Q4E,6Q4F,6Q4H,6Q4J,6Q4K,6RIJ,6SG4,7ACK,7B5L,7B5R,7B7S,7E34,7KJS,7M2F,7MKX,7NVQ,7QHL,7RA5,7RWE,7RWF,7RXO,7S4T,7S7A,7S84,7S85,7S9X,7SA0,7UG1,7UXI,7UXK,7VDU,7ZPC,8B54,8BZO,8CUR,8FOW,8FP0,8FP5,8H6P,8H6T,8OR0,8OR4

> <UniProt (SwissProt) Recommended Name of Target Chain>
Cyclin-dependent kinase 2

> <UniProt (SwissProt) Entry Name of Target Chain>
CDK2_HUMAN

> <UniProt (SwissProt) Primary ID of Target Chain>
P24941

> <UniProt (SwissProt) Secondary ID(s) of Target Chain>
A8K7C6 O75100

> <UniProt (SwissProt) Alternative ID(s) of Target Chain>


> <UniProt (TrEMBL) Submitted Name of Target Chain>


> <UniProt (TrEMBL) Entry Name of Target Chain>


> <UniProt (TrEMBL) Primary ID of Target Chain>


> <UniProt (TrEMBL) Secondary ID(s) of Target Chain>


> <UniProt (TrEMBL) Alternative ID(s) of Target Chain>


$$$$

  Mrv0541 11231414432D          

 17 19  0  0  0  0            999 V2000
   11.5568   -9.5021    0.0000 C   0  0  0  0  0  0  0  0  0  0  0  0
   11.5556  -10.3285    0.0000 C   0  0  0  0  0  0  0  0  0  0  0  0
   12.2697  -10.7410    0.0000 C   0  0  0  0  0  0  0  0  0  0  0  0
   12.2679   -9.0898    0.0000 C   0  0  0  0  0  0  0  0  0  0  0  0
   12.9824   -9.4984    0.0000 C   0  0  0  0  0  0  0  0  0  0  0  0
   12.9873  -10.3286    0.0000 C   0  0  0  0  0  0  0  0  0  0  0  0
   13.7784  -10.5805    0.0000 N   0  0  0  0  0  0  0  0  0  0  0  0
   14.2624   -9.9060    0.0000 N   0  0  0  0  0  0  0  0  0  0  0  0
   13.7705   -9.2374    0.0000 C   0  0  0  0  0  0  0  0  0  0  0  0
   14.1762   -8.5199    0.0000 N   0  0  0  0  0  0  0  0  0  0  0  0
   10.8436  -10.7403    0.0000 C   0  0  0  0  0  0  0  0  0  0  0  0
   10.1298  -10.3260    0.0000 C   0  0  0  0  0  0  0  0  0  0  0  0
    9.4163  -10.7368    0.0000 C   0  0  0  0  0  0  0  0  0  0  0  0
    9.4152  -11.5618    0.0000 N   0  0  0  0  0  0  0  0  0  0  0  0
   10.1336  -11.9742    0.0000 C   0  0  0  0  0  0  0  0  0  0  0  0
   10.8443  -11.5611    0.0000 N   0  0  0  0  0  0  0  0  0  0  0  0
   10.1358  -12.7983    0.0000 N   0  0  0  0  0  0  0  0  0  0  0  0
  7  8  1  0  0  0  0
  8  9  2  0  0  0  0
  9  5  1  0  0  0  0
  4  1  1  0  0  0  0
  9 10  1  0  0  0  0
  5  6  1  0  0  0  0
 11 12  2  0  0  0  0
  2  3  1  0  0  0  0
 12 13  1  0  0  0  0
  3  6  2  0  0  0  0
 13 14  2  0  0  0  0
  1  2  2  0  0  0  0
 14 15  1  0  0  0  0
  5  4  2  0  0  0  0
 15 16  2  0  0  0  0
 16 11  1  0  0  0  0
  2 11  1  0  0  0  0
  6  7  1  0  0  0  0
 15 17  1  0  0  0  0
M  END
> <From>
www.bindingDB.org

> <BindingDB Reactant_set_id>
50628047

> <Ligand InChI>
InChI=1S/C11H10N6/c12-10-7-2-1-6(5-9(7)16-17-10)8-3-4-14-11(13)15-8/h1-5H,(H3,12,16,17)(H2,13,14,15)

> <Ligand InChI Key>
QVWIVWPIJUYRRF-UHFFFAOYSA-N

> <BindingDB MonomerID>
50339006

> <BindingDB Ligand Name>
6-(2-Amino-4-pyrimidinyl)-1H-indazol-3-amine::6-(2-aminopyrimidin-4-yl)-1H-indazol-3-amine::CHEMBL1688215

> <Target Name>
3-phosphoinositide-dependent protein kinase 1

> <Target Source Organism According to Curator or DataSource>
Homo sapiens

> <Ki (nM)>


> <IC50 (nM)>
 370

> <Kd (nM)>


> <EC50 (nM)>


> <kon (M-1-s-1)>


> <koff (s-1)>


> <pH>


> <Temp C>


> <Curation/DataSource>
ChEMBL

> <Article DOI>
10.1021/ml100136n

> <BindingDB Entry DOI>
10.7270/Q22807WJ

> <PMID>
24900229

> <PubChem AID>


> <Patent Number>


> <Authors>
Medina, JR; Blackledge, CW; Heerding, DA; Campobasso, N; Ward, P; Briand, J; Wright, L; Axten, JM.

> <Date of publication>
12/28/2010

> <Date in BindingDB>
8/24/2011

> <Institution>
TBA

> <Link to Ligand in BindingDB>
http://www.bindingdb.org/bind/chemsearch/marvin/MolStructure.jsp?monomerid=50339006

> <Link to Ligand-Target Pair in BindingDB>
http://www.bindingdb.org/jsp/dbsearch/PrimarySearch_ki.jsp?energyterm=kJ/mole&tag=pol&polymerid=1744&target=3-phosphoinositide-dependent+protein+kinase+1&column=ki&startPg=0&Increment=50&submit=Search

> <Link to Ligand-Target Pair in BindingDB>
http://www.bindingdb.org/jsp/dbsearch/PrimarySearch_ki.jsp?energyterm=kJ/mole&tag=r21&monomerid=50339006&enzyme=3-phosphoinositide-dependent+protein+kinase+1&column=ki&startPg=0&Increment=50&submit=Search

> <Ligand HET ID in PDB>
JMZ

> <PDB ID(s) for Ligand-Target Complex>
3NUN

> <PubChem CID of Ligand>
46215814

> <PubChem SID of Ligand>
125089108

> <ChEBI ID of Ligand>


> <ChEMBL ID of Ligand>
CHEMBL1688215

> <DrugBank ID of Ligand>


> <IUPHAR_GRAC ID of Ligand>


> <KEGG ID of Ligand>


> <ZINC ID of Ligand>
ZINC66123699

> <Number of Protein Chains in Target (bigger than 1 implies a multichain complex)>
1

> <BindingDB Target Chain Sequence>
MARTTSQLYDAVPIQSSVVLCSCPSPSMVRTQTESSTPPGIPGGSRQGPAMDGTAAEPRPGAGSLQHAQPPPQPRKKRPEDFKFGKILGEGSFSTVVLARELATSREYAIKILEKRHIIKENKVPYVTRERDVMSRLDHPFFVKLYFTFQDDEKLYFGLSYAKNGELLKYIRKIGSFDETCTRFYTAEIVSALEYLHGKGIIHRDLKPENILLNEDMHIQITDFGTAKVLSPESKQARANSFVGTAQYVSPELLTEKSACKSSDLWALGCIIYQLVAGLPPFRAGNEYLIFQKIIKLEYDFPEKFFPKARDLVEKLLVLDATKRLGCEEMEGYGPLKAHPFFESVTWENLHQQTPPKLTAYLPAMSEDDEDCYGNYDNLLSQFGCMQVSSSSSSHSLSASDTGLPQRSGSNIEQYIHDLDSNSFELDLQFSEDEKRLLLEKQAGGNPWHQFVENNLILKMGPVDKRKGLFARRRQLLLTEGPHLYYVDPVNKVLKGEIPWSQELRPEAKNFKTFFVHTPNRTYYLMDPSGNAHKWCRKIQEVWRQRYQSHPDAAVQ

> <PDB ID(s) of Target Chain>
1H1W,1OKY,1OKZ,1UU3,1UU7,1UU8,1UU9,1UVR,1W1D,1W1G,1W1H,1Z5M,2PE0,2PE1,2PE2,2R7B,2XCH,3ION,3IOP,3NAX,3NAY,3NUN,3NUS,3NUU,3NUY,3QCQ,3QCS,3QCX,3QCY,3QD0,3QD3,3QD4,3RWP,3RWQ,3SC1,5HKM,5HNG,5HO7,5HO8

> <UniProt (SwissProt) Recommended Name of Target Chain>
3-phosphoinositide-dependent protein kinase 1

> <UniProt (SwissProt) Entry Name of Target Chain>
PDPK1_HUMAN

> <UniProt (SwissProt) Primary ID of Target Chain>
O15530

> <UniProt (SwissProt) Secondary ID(s) of Target Chain>
H0Y4Z0 Q59EH6 Q6FI20 Q8IV52 Q9BRD5

> <UniProt (SwissProt) Alternative ID(s) of Target Chain>


> <UniProt (TrEMBL) Submitted Name of Target Chain>


> <UniProt (TrEMBL) Entry Name of Target Chain>


> <UniProt (TrEMBL) Primary ID of Target Chain>


> <UniProt (TrEMBL) Secondary ID(s) of Target Chain>


> <UniProt (TrEMBL) Alternative ID(s) of Target Chain>


$$$$

  Mrv0541 11231414432D          

 17 19  0  0  0  0            999 V2000
   11.5568   -9.5021    0.0000 C   0  0  0  0  0  0  0  0  0  0  0  0
   11.5556  -10.3285    0.0000 C   0  0  0  0  0  0  0  0  0  0  0  0
   12.2697  -10.7410    0.0000 C   0  0  0  0  0  0  0  0  0  0  0  0
   12.2679   -9.0898    0.0000 C   0  0  0  0  0  0  0  0  0  0  0  0
   12.9824   -9.4984    0.0000 C   0  0  0  0  0  0  0  0  0  0  0  0
   12.9873  -10.3286    0.0000 C   0  0  0  0  0  0  0  0  0  0  0  0
   13.7784  -10.5805    0.0000 N   0  0  0  0  0  0  0  0  0  0  0  0
   14.2624   -9.9060    0.0000 N   0  0  0  0  0  0  0  0  0  0  0  0
   13.7705   -9.2374    0.0000 C   0  0  0  0  0  0  0  0  0  0  0  0
   14.1762   -8.5199    0.0000 N   0  0  0  0  0  0  0  0  0  0  0  0
   10.8436  -10.7403    0.0000 C   0  0  0  0  0  0  0  0  0  0  0  0
   10.1298  -10.3260    0.0000 C   0  0  0  0  0  0  0  0  0  0  0  0
    9.4163  -10.7368    0.0000 C   0  0  0  0  0  0  0  0  0  0  0  0
    9.4152  -11.5618    0.0000 N   0  0  0  0  0  0  0  0  0  0  0  0
   10.1336  -11.9742    0.0000 C   0  0  0  0  0  0  0  0  0  0  0  0
   10.8443  -11.5611    0.0000 N   0  0  0  0  0  0  0  0  0  0  0  0
   10.1358  -12.7983    0.0000 N   0  0  0  0  0  0  0  0  0  0  0  0
  7  8  1  0  0  0  0
  8  9  2  0  0  0  0
  9  5  1  0  0  0  0
  4  1  1  0  0  0  0
  9 10  1  0  0  0  0
  5  6  1  0  0  0  0
 11 12  2  0  0  0  0
  2  3  1  0  0  0  0
 12 13  1  0  0  0  0
  3  6  2  0  0  0  0
 13 14  2  0  0  0  0
  1  2  2  0  0  0  0
 14 15  1  0  0  0  0
  5  4  2  0  0  0  0
 15 16  2  0  0  0  0
 16 11  1  0  0  0  0
  2 11  1  0  0  0  0
  6  7  1  0  0  0  0
 15 17  1  0  0  0  0
M  END
> <From>
www.bindingDB.org

> <BindingDB Reactant_set_id>
50628056

> <Ligand InChI>
InChI=1S/C11H10N6/c12-10-7-2-1-6(5-9(7)16-17-10)8-3-4-14-11(13)15-8/h1-5H,(H3,12,16,17)(H2,13,14,15)

> <Ligand InChI Key>
QVWIVWPIJUYRRF-UHFFFAOYSA-N

> <BindingDB MonomerID>
50339006

> <BindingDB Ligand Name>
6-(2-Amino-4-pyrimidinyl)-1H-indazol-3-amine::6-(2-aminopyrimidin-4-yl)-1H-indazol-3-amine::CHEMBL1688215

> <Target Name>
Aurora kinase A

> <Target Source Organism According to Curator or DataSource>
Homo sapiens

> <Ki (nM)>


> <IC50 (nM)>
 390

> <Kd (nM)>


> <EC50 (nM)>


> <kon (M-1-s-1)>


> <koff (s-1)>


> <pH>


> <Temp C>


> <Curation/DataSource>
ChEMBL

> <Article DOI>
10.1021/ml100136n

> <BindingDB Entry DOI>
10.7270/Q22807WJ

> <PMID>
24900229

> <PubChem AID>


> <Patent Number>


> <Authors>
Medina, JR; Blackledge, CW; Heerding, DA; Campobasso, N; Ward, P; Briand, J; Wright, L; Axten, JM.

> <Date of publication>
12/28/2010

> <Date in BindingDB>
8/24/2011

> <Institution>
TBA

> <Link to Ligand in BindingDB>
http://www.bindingdb.org/bind/chemsearch/marvin/MolStructure.jsp?monomerid=50339006

> <Link to Ligand-Target Pair in BindingDB>
http://www.bindingdb.org/jsp/dbsearch/PrimarySearch_ki.jsp?energyterm=kJ/mole&tag=pol&polymerid=1325&target=Aurora+kinase+A&column=ki&startPg=0&Increment=50&submit=Search

> <Link to Ligand-Target Pair in BindingDB>
http://www.bindingdb.org/jsp/dbsearch/PrimarySearch_ki.jsp?energyterm=kJ/mole&tag=r21&monomerid=50339006&enzyme=Aurora+kinase+A&column=ki&startPg=0&Increment=50&submit=Search

> <Ligand HET ID in PDB>
JMZ

> <PDB ID(s) for Ligand-Target Complex>
3NUN

> <PubChem CID of Ligand>
46215814

> <PubChem SID of Ligand>
125089108

> <ChEBI ID of Ligand>


> <ChEMBL ID of Ligand>
CHEMBL1688215

> <DrugBank ID of Ligand>


> <IUPHAR_GRAC ID of Ligand>


> <KEGG ID of Ligand>


> <ZINC ID of Ligand>
ZINC66123699

> <Number of Protein Chains in Target (bigger than 1 implies a multichain complex)>
1

> <BindingDB Target Chain Sequence>
MDRSKENCISGPVKATAPVGGPKRVLVTQQFPCQNPLPVNSGQAQRVLCPSNSSQRVPLQAQKLVSSHKPVQNQKQKQLQATSVPHPVSRPLNNTQKSKQPLPSAPENNPEEELASKQKNEESKKRQWALEDFEIGRPLGKGKFGNVYLAREKQSKFILALKVLFKAQLEKAGVEHQLRREVEIQSHLRHPNILRLYGYFHDATRVYLILEYAPLGTVYRELQKLSKFDEQRTATYITELANALSYCHSKRVIHRDIKPENLLLGSAGELKIADFGWSVHAPSSRRTTLCGTLDYLPPEMIEGRMHDEKVDLWSLGVLCYEFLVGKPPFEANTYQETYKRISRVEFTFPDFVTEGARDLISRLLKHNPSQRPMLREVLEHPWITANSSKPSNCQNKESASKQS

> <PDB ID(s) of Target Chain>
1MQ4,1MUO,1OL5,1OL7,2DWB,2J4Z,2J50,2NP8,2W1C,2W1D,2W1E,2W1F,2W1G,2X6D,2X6E,2X81,2XNG,3DAJ,3E5A,3EFW,3HA6,3MYG,3O50,3O51,3VAP,3W16,3W18,3W2C,4B0G,4BYI,4BYJ,4C3P,4C3R,4JAI,4JAJ,4O0S,4ZS0,4ZTQ,4ZTR,4ZTS,5DN3,5DNR,5EW9,5G15,5OBJ,5OBR,5ONE,5ZAN,6C2R,6C2T,6C83,6CPE,6CPF,6CPG,6GRA,6I2U,6VPJ,6Z4Y,7AYH,7AYI,7O2V,7ZTL

> <UniProt (SwissProt) Recommended Name of Target Chain>
Aurora kinase A

> <UniProt (SwissProt) Entry Name of Target Chain>
AURKA_HUMAN

> <UniProt (SwissProt) Primary ID of Target Chain>
O14965

> <UniProt (SwissProt) Secondary ID(s) of Target Chain>
E1P5F9 O60445 O75873 Q9BQD6 Q9UPG5

> <UniProt (SwissProt) Alternative ID(s) of Target Chain>


> <UniProt (TrEMBL) Submitted Name of Target Chain>


> <UniProt (TrEMBL) Entry Name of Target Chain>


> <UniProt (TrEMBL) Primary ID of Target Chain>


> <UniProt (TrEMBL) Secondary ID(s) of Target Chain>


> <UniProt (TrEMBL) Alternative ID(s) of Target Chain>


$$$$

  Mrv0541 11231414432D          

 17 19  0  0  0  0            999 V2000
   11.5568   -9.5021    0.0000 C   0  0  0  0  0  0  0  0  0  0  0  0
   11.5556  -10.3285    0.0000 C   0  0  0  0  0  0  0  0  0  0  0  0
   12.2697  -10.7410    0.0000 C   0  0  0  0  0  0  0  0  0  0  0  0
   12.2679   -9.0898    0.0000 C   0  0  0  0  0  0  0  0  0  0  0  0
   12.9824   -9.4984    0.0000 C   0  0  0  0  0  0  0  0  0  0  0  0
   12.9873  -10.3286    0.0000 C   0  0  0  0  0  0  0  0  0  0  0  0
   13.7784  -10.5805    0.0000 N   0  0  0  0  0  0  0  0  0  0  0  0
   14.2624   -9.9060    0.0000 N   0  0  0  0  0  0  0  0  0  0  0  0
   13.7705   -9.2374    0.0000 C   0  0  0  0  0  0  0  0  0  0  0  0
   14.1762   -8.5199    0.0000 N   0  0  0  0  0  0  0  0  0  0  0  0
   10.8436  -10.7403    0.0000 C   0  0  0  0  0  0  0  0  0  0  0  0
   10.1298  -10.3260    0.0000 C   0  0  0  0  0  0  0  0  0  0  0  0
    9.4163  -10.7368    0.0000 C   0  0  0  0  0  0  0  0  0  0  0  0
    9.4152  -11.5618    0.0000 N   0  0  0  0  0  0  0  0  0  0  0  0
   10.1336  -11.9742    0.0000 C   0  0  0  0  0  0  0  0  0  0  0  0
   10.8443  -11.5611    0.0000 N   0  0  0  0  0  0  0  0  0  0  0  0
   10.1358  -12.7983    0.0000 N   0  0  0  0  0  0  0  0  0  0  0  0
  7  8  1  0  0  0  0
  8  9  2  0  0  0  0
  9  5  1  0  0  0  0
  4  1  1  0  0  0  0
  9 10  1  0  0  0  0
  5  6  1  0  0  0  0
 11 12  2  0  0  0  0
  2  3  1  0  0  0  0
 12 13  1  0  0  0  0
  3  6  2  0  0  0  0
 13 14  2  0  0  0  0
  1  2  2  0  0  0  0
 14 15  1  0  0  0  0
  5  4  2  0  0  0  0
 15 16  2  0  0  0  0
 16 11  1  0  0  0  0
  2 11  1  0  0  0  0
  6  7  1  0  0  0  0
 15 17  1  0  0  0  0
M  END
> <From>
www.bindingDB.org

> <BindingDB Reactant_set_id>
50628057

> <Ligand InChI>
InChI=1S/C11H10N6/c12-10-7-2-1-6(5-9(7)16-17-10)8-3-4-14-11(13)15-8/h1-5H,(H3,12,16,17)(H2,13,14,15)

> <Ligand InChI Key>
QVWIVWPIJUYRRF-UHFFFAOYSA-N

> <BindingDB MonomerID>
50339006

> <BindingDB Ligand Name>
6-(2-Amino-4-pyrimidinyl)-1H-indazol-3-amine::6-(2-aminopyrimidin-4-yl)-1H-indazol-3-amine::CHEMBL1688215

> <Target Name>
Vascular endothelial growth factor receptor 2

> <Target Source Organism According to Curator or DataSource>
Homo sapiens

> <Ki (nM)>


> <IC50 (nM)>
 840

> <Kd (nM)>


> <EC50 (nM)>


> <kon (M-1-s-1)>


> <koff (s-1)>


> <pH>


> <Temp C>


> <Curation/DataSource>
ChEMBL

> <Article DOI>
10.1021/ml100136n

> <BindingDB Entry DOI>
10.7270/Q22807WJ

> <PMID>
24900229

> <PubChem AID>


> <Patent Number>


> <Authors>
Medina, JR; Blackledge, CW; Heerding, DA; Campobasso, N; Ward, P; Briand, J; Wright, L; Axten, JM.

> <Date of publication>
12/28/2010

> <Date in BindingDB>
8/24/2011

> <Institution>
TBA

> <Link to Ligand in BindingDB>
http://www.bindingdb.org/bind/chemsearch/marvin/MolStructure.jsp?monomerid=50339006

> <Link to Ligand-Target Pair in BindingDB>
http://www.bindingdb.org/jsp/dbsearch/PrimarySearch_ki.jsp?energyterm=kJ/mole&tag=pol&polymerid=692&target=Vascular+endothelial+growth+factor+receptor+2&column=ki&startPg=0&Increment=50&submit=Search

> <Link to Ligand-Target Pair in BindingDB>
http://www.bindingdb.org/jsp/dbsearch/PrimarySearch_ki.jsp?energyterm=kJ/mole&tag=r21&monomerid=50339006&enzyme=Vascular+endothelial+growth+factor+receptor+2&column=ki&startPg=0&Increment=50&submit=Search

> <Ligand HET ID in PDB>
JMZ

> <PDB ID(s) for Ligand-Target Complex>
3NUN

> <PubChem CID of Ligand>
46215814

> <PubChem SID of Ligand>
125089108

> <ChEBI ID of Ligand>


> <ChEMBL ID of Ligand>
CHEMBL1688215

> <DrugBank ID of Ligand>


> <IUPHAR_GRAC ID of Ligand>


> <KEGG ID of Ligand>


> <ZINC ID of Ligand>
ZINC66123699

> <Number of Protein Chains in Target (bigger than 1 implies a multichain complex)>
1

> <BindingDB Target Chain Sequence>
MQSKVLLAVALWLCVETRAASVGLPSVSLDLPRLSIQKDILTIKANTTLQITCRGQRDLDWLWPNNQSGSEQRVEVTECSDGLFCKTLTIPKVIGNDTGAYKCFYRETDLASVIYVYVQDYRSPFIASVSDQHGVVYITENKNKTVVIPCLGSISNLNVSLCARYPEKRFVPDGNRISWDSKKGFTIPSYMISYAGMVFCEAKINDESYQSIMYIVVVVGYRIYDVVLSPSHGIELSVGEKLVLNCTARTELNVGIDFNWEYPSSKHQHKKLVNRDLKTQSGSEMKKFLSTLTIDGVTRSDQGLYTCAASSGLMTKKNSTFVRVHEKPFVAFGSGMESLVEATVGERVRIPAKYLGYPPPEIKWYKNGIPLESNHTIKAGHVLTIMEVSERDTGNYTVILTNPISKEKQSHVVSLVVYVPPQIGEKSLISPVDSYQYGTTQTLTCTVYAIPPPHHIHWYWQLEEECANEPSQAVSVTNPYPCEEWRSVEDFQGGNKIEVNKNQFALIEGKNKTVSTLVIQAANVSALYKCEAVNKVGRGERVISFHVTRGPEITLQPDMQPTEQESVSLWCTADRSTFENLTWYKLGPQPLPIHVGELPTPVCKNLDTLWKLNATMFSNSTNDILIMELKNASLQDQGDYVCLAQDRKTKKRHCVVRQLTVLERVAPTITGNLENQTTSIGESIEVSCTASGNPPPQIMWFKDNETLVEDSGIVLKDGNRNLTIRRVRKEDEGLYTCQACSVLGCAKVEAFFIIEGAQEKTNLEIIILVGTAVIAMFFWLLLVIILRTVKRANGGELKTGYLSIVMDPDELPLDEHCERLPYDASKWEFPRDRLKLGKPLGRGAFGQVIEADAFGIDKTATCRTVAVKMLKEGATHSEHRALMSELKILIHIGHHLNVVNLLGACTKPGGPLMVIVEFCKFGNLSTYLRSKRNEFVPYKTKGARFRQGKDYVGAIPVDLKRRLDSITSSQSSASSGFVEEKSLSDVEEEEAPEDLYKDFLTLEHLICYSFQVAKGMEFLASRKCIHRDLAARNILLSEKNVVKICDFGLARDIYKDPDYVRKGDARLPLKWMAPETIFDRVYTIQSDVWSFGVLLWEIFSLGASPYPGVKIDEEFCRRLKEGTRMRAPDYTTPEMYQTMLDCWHGEPSQRPTFSELVEHLGNLLQANAQQDGKDYIVLPISETLSMEEDSGLSLPTSPVSCMEEEEVCDPKFHYDNTAGISQYLQNSKRKSRPVSVKTFEDIPLEEPEVKVIPDDNQTDSGMVLASEELKTLEDRTKLSPSFGGMVPSKSRESVASEGSNQTSGYQSGYHSDDTDTTVYSSEEAELLKLIEIGVQTGSTAQILQPDSGTTLSSPPV

> <PDB ID(s) of Target Chain>
1Y6A,1Y6B,3KVQ,3S35,3S36,3S37,3V2A,3VHE,3VID,5OYJ

> <UniProt (SwissProt) Recommended Name of Target Chain>
Vascular endothelial growth factor receptor 2

> <UniProt (SwissProt) Entry Name of Target Chain>
VGFR2_HUMAN

> <UniProt (SwissProt) Primary ID of Target Chain>
P35968

> <UniProt (SwissProt) Secondary ID(s) of Target Chain>
A2RRS0 B5A925 C5IFA0 O60723 Q14178

> <UniProt (SwissProt) Alternative ID(s) of Target Chain>


> <UniProt (TrEMBL) Submitted Name of Target Chain>


> <UniProt (TrEMBL) Entry Name of Target Chain>


> <UniProt (TrEMBL) Primary ID of Target Chain>


> <UniProt (TrEMBL) Secondary ID(s) of Target Chain>


> <UniProt (TrEMBL) Alternative ID(s) of Target Chain>


$$$$

  Mrv0541 11231414432D          

 17 19  0  0  0  0            999 V2000
   11.5568   -9.5021    0.0000 C   0  0  0  0  0  0  0  0  0  0  0  0
   11.5556  -10.3285    0.0000 C   0  0  0  0  0  0  0  0  0  0  0  0
   12.2697  -10.7410    0.0000 C   0  0  0  0  0  0  0  0  0  0  0  0
   12.2679   -9.0898    0.0000 C   0  0  0  0  0  0  0  0  0  0  0  0
   12.9824   -9.4984    0.0000 C   0  0  0  0  0  0  0  0  0  0  0  0
   12.9873  -10.3286    0.0000 C   0  0  0  0  0  0  0  0  0  0  0  0
   13.7784  -10.5805    0.0000 N   0  0  0  0  0  0  0  0  0  0  0  0
   14.2624   -9.9060    0.0000 N   0  0  0  0  0  0  0  0  0  0  0  0
   13.7705   -9.2374    0.0000 C   0  0  0  0  0  0  0  0  0  0  0  0
   14.1762   -8.5199    0.0000 N   0  0  0  0  0  0  0  0  0  0  0  0
   10.8436  -10.7403    0.0000 C   0  0  0  0  0  0  0  0  0  0  0  0
   10.1298  -10.3260    0.0000 C   0  0  0  0  0  0  0  0  0  0  0  0
    9.4163  -10.7368    0.0000 C   0  0  0  0  0  0  0  0  0  0  0  0
    9.4152  -11.5618    0.0000 N   0  0  0  0  0  0  0  0  0  0  0  0
   10.1336  -11.9742    0.0000 C   0  0  0  0  0  0  0  0  0  0  0  0
   10.8443  -11.5611    0.0000 N   0  0  0  0  0  0  0  0  0  0  0  0
   10.1358  -12.7983    0.0000 N   0  0  0  0  0  0  0  0  0  0  0  0
  7  8  1  0  0  0  0
  8  9  2  0  0  0  0
  9  5  1  0  0  0  0
  4  1  1  0  0  0  0
  9 10  1  0  0  0  0
  5  6  1  0  0  0  0
 11 12  2  0  0  0  0
  2  3  1  0  0  0  0
 12 13  1  0  0  0  0
  3  6  2  0  0  0  0
 13 14  2  0  0  0  0
  1  2  2  0  0  0  0
 14 15  1  0  0  0  0
  5  4  2  0  0  0  0
 15 16  2  0  0  0  0
 16 11  1  0  0  0  0
  2 11  1  0  0  0  0
  6  7  1  0  0  0  0
 15 17  1  0  0  0  0
M  END
> <From>
www.bindingDB.org

> <BindingDB Reactant_set_id>
50628058

> <Ligand InChI>
InChI=1S/C11H10N6/c12-10-7-2-1-6(5-9(7)16-17-10)8-3-4-14-11(13)15-8/h1-5H,(H3,12,16,17)(H2,13,14,15)

> <Ligand InChI Key>
QVWIVWPIJUYRRF-UHFFFAOYSA-N

> <BindingDB MonomerID>
50339006

> <BindingDB Ligand Name>
6-(2-Amino-4-pyrimidinyl)-1H-indazol-3-amine::6-(2-aminopyrimidin-4-yl)-1H-indazol-3-amine::CHEMBL1688215

> <Target Name>
Tyrosine-protein kinase JAK3

> <Target Source Organism According to Curator or DataSource>
Homo sapiens

> <Ki (nM)>


> <IC50 (nM)>
 990

> <Kd (nM)>


> <EC50 (nM)>


> <kon (M-1-s-1)>


> <koff (s-1)>


> <pH>


> <Temp C>


> <Curation/DataSource>
ChEMBL

> <Article DOI>
10.1021/ml100136n

> <BindingDB Entry DOI>
10.7270/Q22807WJ

> <PMID>
24900229

> <PubChem AID>


> <Patent Number>


> <Authors>
Medina, JR; Blackledge, CW; Heerding, DA; Campobasso, N; Ward, P; Briand, J; Wright, L; Axten, JM.

> <Date of publication>
12/28/2010

> <Date in BindingDB>
8/24/2011

> <Institution>
TBA

> <Link to Ligand in BindingDB>
http://www.bindingdb.org/bind/chemsearch/marvin/MolStructure.jsp?monomerid=50339006

> <Link to Ligand-Target Pair in BindingDB>
http://www.bindingdb.org/jsp/dbsearch/PrimarySearch_ki.jsp?energyterm=kJ/mole&tag=pol&polymerid=4919&target=Tyrosine-protein+kinase+JAK3&column=ki&startPg=0&Increment=50&submit=Search

> <Link to Ligand-Target Pair in BindingDB>
http://www.bindingdb.org/jsp/dbsearch/PrimarySearch_ki.jsp?energyterm=kJ/mole&tag=r21&monomerid=50339006&enzyme=Tyrosine-protein+kinase+JAK3&column=ki&startPg=0&Increment=50&submit=Search

> <Ligand HET ID in PDB>
JMZ

> <PDB ID(s) for Ligand-Target Complex>
3NUN

> <PubChem CID of Ligand>
46215814

> <PubChem SID of Ligand>
125089108

> <ChEBI ID of Ligand>


> <ChEMBL ID of Ligand>
CHEMBL1688215

> <DrugBank ID of Ligand>


> <IUPHAR_GRAC ID of Ligand>


> <KEGG ID of Ligand>


> <ZINC ID of Ligand>
ZINC66123699

> <Number of Protein Chains in Target (bigger than 1 implies a multichain complex)>
1

> <BindingDB Target Chain Sequence>
MAPPSEETPLIPQRSCSLLSTEAGALHVLLPARGPGPPQRLSFSFGDHLAEDLCVQAAKASGILPVYHSLFALATEDLSCWFPPSHIFSVEDASTQVLLYRIRFYFPNWFGLEKCHRFGLRKDLASAILDLPVLEHLFAQHRSDLVSGRLPVGLSLKEQGECLSLAVLDLARMAREQAQRPGELLKTVSYKACLPPSLRDLIQGLSFVTRRRIRRTVRRALRRVAACQADRHSLMAKYIMDLERLDPAGAAETFHVGLPGALGGHDGLGLLRVAGDGGIAWTQGEQEVLQPFCDFPEIVDISIKQAPRVGPAGEHRLVTVTRTDNQILEAEFPGLPEALSFVALVDGYFRLTTDSQHFFCKEVAPPRLLEEVAEQCHGPITLDFAINKLKTGGSRPGSYVLRRSPQDFDSFLLTVCVQNPLGPDYKGCLIRRSPTGTFLLVGLSRPHSSLRELLATCWDGGLHVDGVAVTLTSCCIPRPKEKSNLIVVQRGHSPPTSSLVQPQSQYQLSQMTFHKIPADSLEWHENLGHGSFTKIYRGCRHEVVDGEARKTEVLLKVMDAKHKNCMESFLEAASLMSQVSYRHLVLLHGVCMAGDSTMVQEFVHLGAIDMYLRKRGHLVPASWKLQVVKQLAYALNYLEDKGLPHGNVSARKVLLAREGADGSPPFIKLSDPGVSPAVLSLEMLTDRIPWVAPECLREAQTLSLEADKWGFGATVWEVFSGVTMPISALDPAKKLQFYEDRQQLPAPKWTELALLIQQCMAYEPVQRPSFRAVIRDLNSLISSDYELLSDPTPGALAPRDGLWNGAQLYACQDPTIFEERHLKYISQLGKGNFGSVELCRYDPLGDNTGALVAVKQLQHSGPDQQRDFQREIQILKALHSDFIVKYRGVSYGPGRQSLRLVMEYLPSGCLRDFLQRHRARLDASRLLLYSSQICKGMEYLGSRRCVHRDLAARNILVESEAHVKIADFGLAKLLPLDKDYYVVREPGQSPIFWYAPESLSDNIFSRQSDVWSFGVVLYELFTYCDKSCSPSAEFLRMMGCERDVPALCRLLELLEEGQRLPAPPACPAEVHELMKLCWAPSPQDRPSFSALGPQLDMLWSGSRGCETHAFTAHPEGKHHSLSFS

> <PDB ID(s) of Target Chain>
3PJC,5TOZ,5TTS,5TTU,5TTV,6DA4,6DB3,6DB4,6DUD,7C3N

> <UniProt (SwissProt) Recommended Name of Target Chain>
Tyrosine-protein kinase JAK3

> <UniProt (SwissProt) Entry Name of Target Chain>
JAK3_HUMAN

> <UniProt (SwissProt) Primary ID of Target Chain>
P52333

> <UniProt (SwissProt) Secondary ID(s) of Target Chain>
Q13259 Q13260 Q13611 Q8N1E8 Q99699 Q9Y6S2

> <UniProt (SwissProt) Alternative ID(s) of Target Chain>


> <UniProt (TrEMBL) Submitted Name of Target Chain>


> <UniProt (TrEMBL) Entry Name of Target Chain>


> <UniProt (TrEMBL) Primary ID of Target Chain>


> <UniProt (TrEMBL) Secondary ID(s) of Target Chain>


> <UniProt (TrEMBL) Alternative ID(s) of Target Chain>


$$$$

  Mrv0541 11231414432D          

 16 18  0  0  0  0            999 V2000
   17.7907   -9.7180    0.0000 C   0  0  0  0  0  0  0  0  0  0  0  0
   17.7895  -10.5444    0.0000 C   0  0  0  0  0  0  0  0  0  0  0  0
   18.5035  -10.9568    0.0000 C   0  0  0  0  0  0  0  0  0  0  0  0
   18.5017   -9.3057    0.0000 C   0  0  0  0  0  0  0  0  0  0  0  0
   19.2163   -9.7144    0.0000 C   0  0  0  0  0  0  0  0  0  0  0  0
   19.2212  -10.5444    0.0000 C   0  0  0  0  0  0  0  0  0  0  0  0
   20.0122  -10.7963    0.0000 N   0  0  0  0  0  0  0  0  0  0  0  0
   20.4961  -10.1219    0.0000 N   0  0  0  0  0  0  0  0  0  0  0  0
   20.0043   -9.4533    0.0000 C   0  0  0  0  0  0  0  0  0  0  0  0
   20.4099   -8.7358    0.0000 N   0  0  0  0  0  0  0  0  0  0  0  0
   17.0774  -10.9561    0.0000 C   0  0  0  0  0  0  0  0  0  0  0  0
   16.3638  -10.5418    0.0000 C   0  0  0  0  0  0  0  0  0  0  0  0
   15.6504  -10.9526    0.0000 C   0  0  0  0  0  0  0  0  0  0  0  0
   15.6493  -11.7775    0.0000 N   0  0  0  0  0  0  0  0  0  0  0  0
   16.3676  -12.1900    0.0000 C   0  0  0  0  0  0  0  0  0  0  0  0
   17.0781  -11.7768    0.0000 N   0  0  0  0  0  0  0  0  0  0  0  0
  6  7  1  0  0  0  0
  7  8  1  0  0  0  0
  8  9  2  0  0  0  0
  9  5  1  0  0  0  0
  4  1  1  0  0  0  0
  9 10  1  0  0  0  0
  5  6  1  0  0  0  0
 11 12  2  0  0  0  0
  2  3  1  0  0  0  0
 12 13  1  0  0  0  0
  3  6  2  0  0  0  0
 13 14  2  0  0  0  0
  1  2  2  0  0  0  0
 14 15  1  0  0  0  0
  5  4  2  0  0  0  0
 15 16  2  0  0  0  0
 16 11  1  0  0  0  0
  2 11  1  0  0  0  0
M  END
> <From>
www.bindingDB.org

> <BindingDB Reactant_set_id>
50628048

> <Ligand InChI>
InChI=1S/C11H9N5/c12-11-8-2-1-7(5-10(8)15-16-11)9-3-4-13-6-14-9/h1-6H,(H3,12,15,16)

> <Ligand InChI Key>
SKJFCTHJTQEUPW-UHFFFAOYSA-N

> <BindingDB MonomerID>
50339023

> <BindingDB Ligand Name>
6-(4-Pyrimidinyl)-1H-indazol-3-amine trifluoroacetate::CHEMBL1688216

> <Target Name>
3-phosphoinositide-dependent protein kinase 1

> <Target Source Organism According to Curator or DataSource>
Homo sapiens

> <Ki (nM)>


> <IC50 (nM)>
 2670

> <Kd (nM)>


> <EC50 (nM)>


> <kon (M-1-s-1)>


> <koff (s-1)>


> <pH>


> <Temp C>


> <Curation/DataSource>
ChEMBL

> <Article DOI>
10.1021/ml100136n

> <BindingDB Entry DOI>
10.7270/Q22807WJ

> <PMID>
24900229

> <PubChem AID>


> <Patent Number>


> <Authors>
Medina, JR; Blackledge, CW; Heerding, DA; Campobasso, N; Ward, P; Briand, J; Wright, L; Axten, JM.

> <Date of publication>
12/28/2010

> <Date in BindingDB>
8/24/2011

> <Institution>
TBA

> <Link to Ligand in BindingDB>
http://www.bindingdb.org/bind/chemsearch/marvin/MolStructure.jsp?monomerid=50339023

> <Link to Ligand-Target Pair in BindingDB>
http://www.bindingdb.org/jsp/dbsearch/PrimarySearch_ki.jsp?energyterm=kJ/mole&tag=pol&polymerid=1744&target=3-phosphoinositide-dependent+protein+kinase+1&column=ki&startPg=0&Increment=50&submit=Search

> <Link to Ligand-Target Pair in BindingDB>
http://www.bindingdb.org/jsp/dbsearch/PrimarySearch_ki.jsp?energyterm=kJ/mole&tag=r21&monomerid=50339023&enzyme=3-phosphoinositide-dependent+protein+kinase+1&column=ki&startPg=0&Increment=50&submit=Search

> <Ligand HET ID in PDB>


> <PDB ID(s) for Ligand-Target Complex>


> <PubChem CID of Ligand>
53320369

> <PubChem SID of Ligand>
125089125

> <ChEBI ID of Ligand>


> <ChEMBL ID of Ligand>
CHEMBL1688216

> <DrugBank ID of Ligand>


> <IUPHAR_GRAC ID of Ligand>


> <KEGG ID of Ligand>


> <ZINC ID of Ligand>
ZINC66123847

> <Number of Protein Chains in Target (bigger than 1 implies a multichain complex)>
1

> <BindingDB Target Chain Sequence>
MARTTSQLYDAVPIQSSVVLCSCPSPSMVRTQTESSTPPGIPGGSRQGPAMDGTAAEPRPGAGSLQHAQPPPQPRKKRPEDFKFGKILGEGSFSTVVLARELATSREYAIKILEKRHIIKENKVPYVTRERDVMSRLDHPFFVKLYFTFQDDEKLYFGLSYAKNGELLKYIRKIGSFDETCTRFYTAEIVSALEYLHGKGIIHRDLKPENILLNEDMHIQITDFGTAKVLSPESKQARANSFVGTAQYVSPELLTEKSACKSSDLWALGCIIYQLVAGLPPFRAGNEYLIFQKIIKLEYDFPEKFFPKARDLVEKLLVLDATKRLGCEEMEGYGPLKAHPFFESVTWENLHQQTPPKLTAYLPAMSEDDEDCYGNYDNLLSQFGCMQVSSSSSSHSLSASDTGLPQRSGSNIEQYIHDLDSNSFELDLQFSEDEKRLLLEKQAGGNPWHQFVENNLILKMGPVDKRKGLFARRRQLLLTEGPHLYYVDPVNKVLKGEIPWSQELRPEAKNFKTFFVHTPNRTYYLMDPSGNAHKWCRKIQEVWRQRYQSHPDAAVQ

> <PDB ID(s) of Target Chain>
1H1W,1OKY,1OKZ,1UU3,1UU7,1UU8,1UU9,1UVR,1W1D,1W1G,1W1H,1Z5M,2PE0,2PE1,2PE2,2R7B,2XCH,3ION,3IOP,3NAX,3NAY,3NUN,3NUS,3NUU,3NUY,3QCQ,3QCS,3QCX,3QCY,3QD0,3QD3,3QD4,3RWP,3RWQ,3SC1,5HKM,5HNG,5HO7,5HO8

> <UniProt (SwissProt) Recommended Name of Target Chain>
3-phosphoinositide-dependent protein kinase 1

> <UniProt (SwissProt) Entry Name of Target Chain>
PDPK1_HUMAN

> <UniProt (SwissProt) Primary ID of Target Chain>
O15530

> <UniProt (SwissProt) Secondary ID(s) of Target Chain>
H0Y4Z0 Q59EH6 Q6FI20 Q8IV52 Q9BRD5

> <UniProt (SwissProt) Alternative ID(s) of Target Chain>


> <UniProt (TrEMBL) Submitted Name of Target Chain>


> <UniProt (TrEMBL) Entry Name of Target Chain>


> <UniProt (TrEMBL) Primary ID of Target Chain>


> <UniProt (TrEMBL) Secondary ID(s) of Target Chain>


> <UniProt (TrEMBL) Alternative ID(s) of Target Chain>


$$$$

  Mrv0541 11231414432D          

 17 19  0  0  0  0            999 V2000
   11.5568   -9.5021    0.0000 C   0  0  0  0  0  0  0  0  0  0  0  0
   11.5556  -10.3285    0.0000 C   0  0  0  0  0  0  0  0  0  0  0  0
   12.2697  -10.7410    0.0000 C   0  0  0  0  0  0  0  0  0  0  0  0
   12.2679   -9.0898    0.0000 C   0  0  0  0  0  0  0  0  0  0  0  0
   12.9824   -9.4984    0.0000 C   0  0  0  0  0  0  0  0  0  0  0  0
   12.9873  -10.3286    0.0000 C   0  0  0  0  0  0  0  0  0  0  0  0
   13.7784  -10.5805    0.0000 N   0  0  0  0  0  0  0  0  0  0  0  0
   14.2624   -9.9060    0.0000 N   0  0  0  0  0  0  0  0  0  0  0  0
   13.7705   -9.2374    0.0000 C   0  0  0  0  0  0  0  0  0  0  0  0
   14.1762   -8.5199    0.0000 N   0  0  0  0  0  0  0  0  0  0  0  0
   10.8436  -10.7403    0.0000 C   0  0  0  0  0  0  0  0  0  0  0  0
   10.1298  -10.3260    0.0000 C   0  0  0  0  0  0  0  0  0  0  0  0
    9.4163  -10.7368    0.0000 C   0  0  0  0  0  0  0  0  0  0  0  0
    9.4152  -11.5618    0.0000 N   0  0  0  0  0  0  0  0  0  0  0  0
   10.1336  -11.9742    0.0000 C   0  0  0  0  0  0  0  0  0  0  0  0
   10.8443  -11.5611    0.0000 N   0  0  0  0  0  0  0  0  0  0  0  0
   10.1358  -12.7983    0.0000 N   0  0  0  0  0  0  0  0  0  0  0  0
  7  8  1  0  0  0  0
  8  9  2  0  0  0  0
  9  5  1  0  0  0  0
  4  1  1  0  0  0  0
  9 10  1  0  0  0  0
  5  6  1  0  0  0  0
 11 12  2  0  0  0  0
  2  3  1  0  0  0  0
 12 13  1  0  0  0  0
  3  6  2  0  0  0  0
 13 14  2  0  0  0  0
  1  2  2  0  0  0  0
 14 15  1  0  0  0  0
  5  4  2  0  0  0  0
 15 16  2  0  0  0  0
 16 11  1  0  0  0  0
  2 11  1  0  0  0  0
  6  7  1  0  0  0  0
 15 17  1  0  0  0  0
M  END
> <From>
www.bindingDB.org

> <BindingDB Reactant_set_id>
50172037

> <Ligand InChI>
InChI=1S/C11H10N6/c12-10-7-2-1-6(5-9(7)16-17-10)8-3-4-14-11(13)15-8/h1-5H,(H3,12,16,17)(H2,13,14,15)

> <Ligand InChI Key>
QVWIVWPIJUYRRF-UHFFFAOYSA-N

> <BindingDB MonomerID>
50339006

> <BindingDB Ligand Name>
6-(2-Amino-4-pyrimidinyl)-1H-indazol-3-amine::6-(2-aminopyrimidin-4-yl)-1H-indazol-3-amine::CHEMBL1688215

> <Target Name>
Aurora kinase B

> <Target Source Organism According to Curator or DataSource>
Homo sapiens

> <Ki (nM)>


> <IC50 (nM)>
 3480

> <Kd (nM)>


> <EC50 (nM)>


> <kon (M-1-s-1)>


> <koff (s-1)>


> <pH>


> <Temp C>


> <Curation/DataSource>
ChEMBL

> <Article DOI>
10.1021/ml100136n

> <BindingDB Entry DOI>
10.7270/Q22807WJ

> <PMID>
24900229

> <PubChem AID>


> <Patent Number>


> <Authors>
Medina, JR; Blackledge, CW; Heerding, DA; Campobasso, N; Ward, P; Briand, J; Wright, L; Axten, JM.

> <Date of publication>
12/28/2010

> <Date in BindingDB>
8/24/2011

> <Institution>
TBA

> <Link to Ligand in BindingDB>
http://www.bindingdb.org/bind/chemsearch/marvin/MolStructure.jsp?monomerid=50339006

> <Link to Ligand-Target Pair in BindingDB>
http://www.bindingdb.org/jsp/dbsearch/PrimarySearch_ki.jsp?energyterm=kJ/mole&tag=pol&polymerid=4981&target=Aurora+kinase+B&column=ki&startPg=0&Increment=50&submit=Search

> <Link to Ligand-Target Pair in BindingDB>
http://www.bindingdb.org/jsp/dbsearch/PrimarySearch_ki.jsp?energyterm=kJ/mole&tag=r21&monomerid=50339006&enzyme=Aurora+kinase+B&column=ki&startPg=0&Increment=50&submit=Search

> <Ligand HET ID in PDB>
JMZ

> <PDB ID(s) for Ligand-Target Complex>
3NUN

> <PubChem CID of Ligand>
46215814

> <PubChem SID of Ligand>
125089108

> <ChEBI ID of Ligand>


> <ChEMBL ID of Ligand>
CHEMBL1688215

> <DrugBank ID of Ligand>


> <IUPHAR_GRAC ID of Ligand>


> <KEGG ID of Ligand>


> <ZINC ID of Ligand>
ZINC66123699

> <Number of Protein Chains in Target (bigger than 1 implies a multichain complex)>
1

> <BindingDB Target Chain Sequence>
MAQKENSYPWPYGRQTAPSGLSTLPQRVLRKEPVTPSALVLMSRSNVQPTAAPGQKVMENSSGTPDILTRHFTIDDFEIGRPLGKGKFGNVYLAREKKSHFIVALKVLFKSQIEKEGVEHQLRREIEIQAHLHHPNILRLYNYFYDRRRIYLILEYAPRGELYKELQKSCTFDEQRTATIMEELADALMYCHGKKVIHRDIKPENLLLGLKGELKIADFGWSVHAPSLRRKTMCGTLDYLPPEMIEGRMHNEKVDLWCIGVLCYELLVGNPPFESASHNETYRRIVKVDLKFPASVPMGAQDLISKLLRHNPSERLPLAQVSAHPWVRANSRRVLPPSALQSVA

> <PDB ID(s) of Target Chain>


> <UniProt (SwissProt) Recommended Name of Target Chain>
Aurora kinase B

> <UniProt (SwissProt) Entry Name of Target Chain>
AURKB_HUMAN

> <UniProt (SwissProt) Primary ID of Target Chain>
Q96GD4

> <UniProt (SwissProt) Secondary ID(s) of Target Chain>
B4DNM4 C7G533 C7G534 C7G535 D3DTR4 J9JID1 O14630 O60446 O95083 Q96DV5 Q9UQ46

> <UniProt (SwissProt) Alternative ID(s) of Target Chain>


> <UniProt (TrEMBL) Submitted Name of Target Chain>


> <UniProt (TrEMBL) Entry Name of Target Chain>


> <UniProt (TrEMBL) Primary ID of Target Chain>


> <UniProt (TrEMBL) Secondary ID(s) of Target Chain>


> <UniProt (TrEMBL) Alternative ID(s) of Target Chain>


$$$$

  Mrv0541 11231414432D          

 17 19  0  0  0  0            999 V2000
   11.5568   -9.5021    0.0000 C   0  0  0  0  0  0  0  0  0  0  0  0
   11.5556  -10.3285    0.0000 C   0  0  0  0  0  0  0  0  0  0  0  0
   12.2697  -10.7410    0.0000 C   0  0  0  0  0  0  0  0  0  0  0  0
   12.2679   -9.0898    0.0000 C   0  0  0  0  0  0  0  0  0  0  0  0
   12.9824   -9.4984    0.0000 C   0  0  0  0  0  0  0  0  0  0  0  0
   12.9873  -10.3286    0.0000 C   0  0  0  0  0  0  0  0  0  0  0  0
   13.7784  -10.5805    0.0000 N   0  0  0  0  0  0  0  0  0  0  0  0
   14.2624   -9.9060    0.0000 N   0  0  0  0  0  0  0  0  0  0  0  0
   13.7705   -9.2374    0.0000 C   0  0  0  0  0  0  0  0  0  0  0  0
   14.1762   -8.5199    0.0000 N   0  0  0  0  0  0  0  0  0  0  0  0
   10.8436  -10.7403    0.0000 C   0  0  0  0  0  0  0  0  0  0  0  0
   10.1298  -10.3260    0.0000 C   0  0  0  0  0  0  0  0  0  0  0  0
    9.4163  -10.7368    0.0000 C   0  0  0  0  0  0  0  0  0  0  0  0
    9.4152  -11.5618    0.0000 N   0  0  0  0  0  0  0  0  0  0  0  0
   10.1336  -11.9742    0.0000 C   0  0  0  0  0  0  0  0  0  0  0  0
   10.8443  -11.5611    0.0000 N   0  0  0  0  0  0  0  0  0  0  0  0
   10.1358  -12.7983    0.0000 N   0  0  0  0  0  0  0  0  0  0  0  0
  7  8  1  0  0  0  0
  8  9  2  0  0  0  0
  9  5  1  0  0  0  0
  4  1  1  0  0  0  0
  9 10  1  0  0  0  0
  5  6  1  0  0  0  0
 11 12  2  0  0  0  0
  2  3  1  0  0  0  0
 12 13  1  0  0  0  0
  3  6  2  0  0  0  0
 13 14  2  0  0  0  0
  1  2  2  0  0  0  0
 14 15  1  0  0  0  0
  5  4  2  0  0  0  0
 15 16  2  0  0  0  0
 16 11  1  0  0  0  0
  2 11  1  0  0  0  0
  6  7  1  0  0  0  0
 15 17  1  0  0  0  0
M  END
> <From>
www.bindingDB.org

> <BindingDB Reactant_set_id>
50628060

> <Ligand InChI>
InChI=1S/C11H10N6/c12-10-7-2-1-6(5-9(7)16-17-10)8-3-4-14-11(13)15-8/h1-5H,(H3,12,16,17)(H2,13,14,15)

> <Ligand InChI Key>
QVWIVWPIJUYRRF-UHFFFAOYSA-N

> <BindingDB MonomerID>
50339006

> <BindingDB Ligand Name>
6-(2-Amino-4-pyrimidinyl)-1H-indazol-3-amine::6-(2-aminopyrimidin-4-yl)-1H-indazol-3-amine::CHEMBL1688215

> <Target Name>
Tyrosine-protein kinase SYK

> <Target Source Organism According to Curator or DataSource>
Homo sapiens

> <Ki (nM)>


> <IC50 (nM)>
 4000

> <Kd (nM)>


> <EC50 (nM)>


> <kon (M-1-s-1)>


> <koff (s-1)>


> <pH>


> <Temp C>


> <Curation/DataSource>
ChEMBL

> <Article DOI>
10.1021/ml100136n

> <BindingDB Entry DOI>
10.7270/Q22807WJ

> <PMID>
24900229

> <PubChem AID>


> <Patent Number>


> <Authors>
Medina, JR; Blackledge, CW; Heerding, DA; Campobasso, N; Ward, P; Briand, J; Wright, L; Axten, JM.

> <Date of publication>
12/28/2010

> <Date in BindingDB>
8/24/2011

> <Institution>
TBA

> <Link to Ligand in BindingDB>
http://www.bindingdb.org/bind/chemsearch/marvin/MolStructure.jsp?monomerid=50339006

> <Link to Ligand-Target Pair in BindingDB>
http://www.bindingdb.org/jsp/dbsearch/PrimarySearch_ki.jsp?energyterm=kJ/mole&tag=pol&polymerid=763&target=Tyrosine-protein+kinase+SYK&column=ki&startPg=0&Increment=50&submit=Search

> <Link to Ligand-Target Pair in BindingDB>
http://www.bindingdb.org/jsp/dbsearch/PrimarySearch_ki.jsp?energyterm=kJ/mole&tag=r21&monomerid=50339006&enzyme=Tyrosine-protein+kinase+SYK&column=ki&startPg=0&Increment=50&submit=Search

> <Ligand HET ID in PDB>
JMZ

> <PDB ID(s) for Ligand-Target Complex>
3NUN

> <PubChem CID of Ligand>
46215814

> <PubChem SID of Ligand>
125089108

> <ChEBI ID of Ligand>


> <ChEMBL ID of Ligand>
CHEMBL1688215

> <DrugBank ID of Ligand>


> <IUPHAR_GRAC ID of Ligand>


> <KEGG ID of Ligand>


> <ZINC ID of Ligand>
ZINC66123699

> <Number of Protein Chains in Target (bigger than 1 implies a multichain complex)>
1

> <BindingDB Target Chain Sequence>
MASSGMADSANHLPFFFGNITREEAEDYLVQGGMSDGLYLLRQSRNYLGGFALSVAHGRKAHHYTIERELNGTYAIAGGRTHASPADLCHYHSQESDGLVCLLKKPFNRPQGVQPKTGPFEDLKENLIREYVKQTWNLQGQALEQAIISQKPQLEKLIATTAHEKMPWFHGKISREESEQIVLIGSKTNGKFLIRARDNNGSYALCLLHEGKVLHYRIDKDKTGKLSIPEGKKFDTLWQLVEHYSYKADGLLRVLTVPCQKIGTQGNVNFGGRPQLPGSHPATWSAGGIISRIKSYSFPKPGHRKSSPAQGNRQESTVSFNPYEPELAPWAADKGPQREALPMDTEVYESPYADPEEIRPKEVYLDRKLLTLEDKELGSGNFGTVKKGYYQMKKVVKTVAVKILKNEANDPALKDELLAEANVMQQLDNPYIVRMIGICEAESWMLVMEMAELGPLNKYLQQNRHVKDKNIIELVHQVSMGMKYLEESNFVHRDLAARNVLLVTQHYAKISDFGLSKALRADENYYKAQTHGKWPVKWYAPECINYYKFSSKSDVWSFGVLMWEAFSYGQKPYRGMKGSEVTAMLEKGERMGCPAGCPREMYDLMNLCWTYDVENRPGFAAVELRLRNYYYDVVN

> <PDB ID(s) of Target Chain>
1XBA,1XBB,1XBC,3FQE,3FQH,3FQS,3SRV,3TUB,3TUC,3TUD,3VF8,3VF9,4DFL,4DFN,4F4P,4FL1,4FL2,4FYN,4FYO,4FZ6,4FZ7,4GFG,4I0R,4I0S,4I0T,4PUZ,4PV0,4RSS,4WNM,4XG2,4XG3,4XG4,4XG6,4XG7,4XG8,4XG9,4YJO,4YJP,4YJQ,4YJR,4YJS,4YJT,4YJU,4YJV,5C26,5C27,5GHV,5LMA,5LMB,5T68,5TIU,5TR6,5TT7,5Y5T,5Y5U,6HM6,6HM7,6SSB,6VOV,6ZC0,6ZCP,6ZCQ,6ZCR,6ZCS,6ZCU,6ZCX,6ZCY,7SA7,8BI2

> <UniProt (SwissProt) Recommended Name of Target Chain>
Tyrosine-protein kinase SYK

> <UniProt (SwissProt) Entry Name of Target Chain>
KSYK_HUMAN

> <UniProt (SwissProt) Primary ID of Target Chain>
P43405

> <UniProt (SwissProt) Secondary ID(s) of Target Chain>


> <UniProt (SwissProt) Alternative ID(s) of Target Chain>


> <UniProt (TrEMBL) Submitted Name of Target Chain>


> <UniProt (TrEMBL) Entry Name of Target Chain>


> <UniProt (TrEMBL) Primary ID of Target Chain>


> <UniProt (TrEMBL) Secondary ID(s) of Target Chain>


> <UniProt (TrEMBL) Alternative ID(s) of Target Chain>


$$$$

  Mrv0541 11231414432D          

 17 19  0  0  0  0            999 V2000
   11.5568   -9.5021    0.0000 C   0  0  0  0  0  0  0  0  0  0  0  0
   11.5556  -10.3285    0.0000 C   0  0  0  0  0  0  0  0  0  0  0  0
   12.2697  -10.7410    0.0000 C   0  0  0  0  0  0  0  0  0  0  0  0
   12.2679   -9.0898    0.0000 C   0  0  0  0  0  0  0  0  0  0  0  0
   12.9824   -9.4984    0.0000 C   0  0  0  0  0  0  0  0  0  0  0  0
   12.9873  -10.3286    0.0000 C   0  0  0  0  0  0  0  0  0  0  0  0
   13.7784  -10.5805    0.0000 N   0  0  0  0  0  0  0  0  0  0  0  0
   14.2624   -9.9060    0.0000 N   0  0  0  0  0  0  0  0  0  0  0  0
   13.7705   -9.2374    0.0000 C   0  0  0  0  0  0  0  0  0  0  0  0
   14.1762   -8.5199    0.0000 N   0  0  0  0  0  0  0  0  0  0  0  0
   10.8436  -10.7403    0.0000 C   0  0  0  0  0  0  0  0  0  0  0  0
   10.1298  -10.3260    0.0000 C   0  0  0  0  0  0  0  0  0  0  0  0
    9.4163  -10.7368    0.0000 C   0  0  0  0  0  0  0  0  0  0  0  0
    9.4152  -11.5618    0.0000 N   0  0  0  0  0  0  0  0  0  0  0  0
   10.1336  -11.9742    0.0000 C   0  0  0  0  0  0  0  0  0  0  0  0
   10.8443  -11.5611    0.0000 N   0  0  0  0  0  0  0  0  0  0  0  0
   10.1358  -12.7983    0.0000 N   0  0  0  0  0  0  0  0  0  0  0  0
  7  8  1  0  0  0  0
  8  9  2  0  0  0  0
  9  5  1  0  0  0  0
  4  1  1  0  0  0  0
  9 10  1  0  0  0  0
  5  6  1  0  0  0  0
 11 12  2  0  0  0  0
  2  3  1  0  0  0  0
 12 13  1  0  0  0  0
  3  6  2  0  0  0  0
 13 14  2  0  0  0  0
  1  2  2  0  0  0  0
 14 15  1  0  0  0  0
  5  4  2  0  0  0  0
 15 16  2  0  0  0  0
 16 11  1  0  0  0  0
  2 11  1  0  0  0  0
  6  7  1  0  0  0  0
 15 17  1  0  0  0  0
M  END
> <From>
www.bindingDB.org

> <BindingDB Reactant_set_id>
50628061

> <Ligand InChI>
InChI=1S/C11H10N6/c12-10-7-2-1-6(5-9(7)16-17-10)8-3-4-14-11(13)15-8/h1-5H,(H3,12,16,17)(H2,13,14,15)

> <Ligand InChI Key>
QVWIVWPIJUYRRF-UHFFFAOYSA-N

> <BindingDB MonomerID>
50339006

> <BindingDB Ligand Name>
6-(2-Amino-4-pyrimidinyl)-1H-indazol-3-amine::6-(2-aminopyrimidin-4-yl)-1H-indazol-3-amine::CHEMBL1688215

> <Target Name>
Mitogen-activated protein kinase kinase kinase 5

> <Target Source Organism According to Curator or DataSource>
Human

> <Ki (nM)>


> <IC50 (nM)>
 5690

> <Kd (nM)>


> <EC50 (nM)>


> <kon (M-1-s-1)>


> <koff (s-1)>


> <pH>


> <Temp C>


> <Curation/DataSource>
ChEMBL

> <Article DOI>
10.1021/ml100136n

> <BindingDB Entry DOI>
10.7270/Q22807WJ

> <PMID>
24900229

> <PubChem AID>


> <Patent Number>


> <Authors>
Medina, JR; Blackledge, CW; Heerding, DA; Campobasso, N; Ward, P; Briand, J; Wright, L; Axten, JM.

> <Date of publication>
12/28/2010

> <Date in BindingDB>
8/24/2011

> <Institution>
TBA

> <Link to Ligand in BindingDB>
http://www.bindingdb.org/bind/chemsearch/marvin/MolStructure.jsp?monomerid=50339006

> <Link to Ligand-Target Pair in BindingDB>
http://www.bindingdb.org/jsp/dbsearch/PrimarySearch_ki.jsp?energyterm=kJ/mole&tag=pol&polymerid=7285&target=Mitogen-activated+protein+kinase+kinase+kinase+5&column=ki&startPg=0&Increment=50&submit=Search

> <Link to Ligand-Target Pair in BindingDB>
http://www.bindingdb.org/jsp/dbsearch/PrimarySearch_ki.jsp?energyterm=kJ/mole&tag=r21&monomerid=50339006&enzyme=Mitogen-activated+protein+kinase+kinase+kinase+5&column=ki&startPg=0&Increment=50&submit=Search

> <Ligand HET ID in PDB>
JMZ

> <PDB ID(s) for Ligand-Target Complex>
3NUN

> <PubChem CID of Ligand>
46215814

> <PubChem SID of Ligand>
125089108

> <ChEBI ID of Ligand>


> <ChEMBL ID of Ligand>
CHEMBL1688215

> <DrugBank ID of Ligand>


> <IUPHAR_GRAC ID of Ligand>


> <KEGG ID of Ligand>


> <ZINC ID of Ligand>
ZINC66123699

> <Number of Protein Chains in Target (bigger than 1 implies a multichain complex)>
1

> <BindingDB Target Chain Sequence>
MSTEADEGITFSVPPFAPSGFCTIPEGGICRRGGAAAVGEGEEHQLPPPPPGSFWNVESAAAPGIGCPAATSSSSATRGRGSSVGGGSRRTTVAYVINEASQGQLVVAESEALQSLREACETVGATLETLHFGKLDFGETTVLDRFYNADIAVVEMSDAFRQPSLFYHLGVRESFSMANNIILYCDTNSDSLQSLKEIICQKNTMCTGNYTFVPYMITPHNKVYCCDSSFMKGLTELMQPNFELLLGPICLPLVDRFIQLLKVAQASSSQYFRESILNDIRKARNLYTGKELAAELARIRQRVDNIEVLTADIVINLLLSYRDIQDYDSIVKLVETLEKLPTFDLASHHHVKFHYAFALNRRNLPGDRAKALDIMIPMVQSEGQVASDMYCLVGRIYKDMFLDSNFTDTESRDHGASWFKKAFESEPTLQSGINYAVLLLAAGHQFESSFELRKVGVKLSSLLGKKGNLEKLQSYWEVGFFLGASVLANDHMRVIQASEKLFKLKTPAWYLKSIVETILIYKHFVKLTTEQPVAKQELVDFWMDFLVEATKTDVTVVRFPVLILEPTKIYQPSYLSINNEVEEKTISIWHVLPDDKKGIHEWNFSASSVRGVSISKFEERCCFLYVLHNSDDFQIYFCTELHCKKFFEMVNTITEEKGRSTEEGDCESDLLEYDYEYDENGDRVVLGKGTYGIVYAGRDLSNQVRIAIKEIPERDSRYSQPLHEEIALHKHLKHKNIVQYLGSFSENGFIKIFMEQVPGGSLSALLRSKWGPLKDNEQTIGFYTKQILEGLKYLHDNQIVHRDIKGDNVLINTYSGVLKISDFGTSKRLAGINPCTETFTGTLQYMAPEIIDKGPRGYGKAADIWSLGCTIIEMATGKPPFYELGEPQAAMFKVGMFKVHPEIPESMSAEAKAFILKCFEPDPDKRACANDLLVDEFLKVSSKKKKTQPKLSALSAGSNEYLRSISLPVPVLVEDTSSSSEYGSVSPDTELKVDPFSFKTRAKSCGERDVKGIRTLFLGIPDENFEDHSAPPSPEEKDSGFFMLRKDSERRATLHRILTEDQDKIVRNLMESLAQGAEEPKLKWEHITTLIASLREFVRSTDRKIIATTLSKLKLELDFDSHGISQVQVVLFGFQDAVNKVLRNHNIKPHWMFALDSIIRKAVQTAITILVPELRPHFSLASESDTADQEDLDVEDDHEEQPSNQTVRRPQAVIEDAVATSGVSTLSSTVSHDSQSAHRSLNVQLGRMKIETNRLLEELVRKEKELQALLHRAIEEKDQEIKHLKLKSQPIEIPELPVFHLNSSGTNTEDSELTDWLRVNGADEDTISRFLAEDYTLLDVLYYVTRDDLKCLRLRGGMLCTLWKAIIDFRNKQT

> <PDB ID(s) of Target Chain>
2CLQ,3VW6,5ULM,5UOR,5UOX,5UP3,5V19,5V24,5VIL,5VIO,6E2M,6E2N,6E2O,6OYT,6XIH

> <UniProt (SwissProt) Recommended Name of Target Chain>
Mitogen-activated protein kinase kinase kinase 5

> <UniProt (SwissProt) Entry Name of Target Chain>
M3K5_HUMAN

> <UniProt (SwissProt) Primary ID of Target Chain>
Q99683

> <UniProt (SwissProt) Secondary ID(s) of Target Chain>
A6NIA0 B4DGB2 Q5THN3 Q99461

> <UniProt (SwissProt) Alternative ID(s) of Target Chain>


> <UniProt (TrEMBL) Submitted Name of Target Chain>


> <UniProt (TrEMBL) Entry Name of Target Chain>


> <UniProt (TrEMBL) Primary ID of Target Chain>


> <UniProt (TrEMBL) Secondary ID(s) of Target Chain>


> <UniProt (TrEMBL) Alternative ID(s) of Target Chain>


$$$$

  Mrv0541 11231414432D          

 17 19  0  0  0  0            999 V2000
   11.5568   -9.5021    0.0000 C   0  0  0  0  0  0  0  0  0  0  0  0
   11.5556  -10.3285    0.0000 C   0  0  0  0  0  0  0  0  0  0  0  0
   12.2697  -10.7410    0.0000 C   0  0  0  0  0  0  0  0  0  0  0  0
   12.2679   -9.0898    0.0000 C   0  0  0  0  0  0  0  0  0  0  0  0
   12.9824   -9.4984    0.0000 C   0  0  0  0  0  0  0  0  0  0  0  0
   12.9873  -10.3286    0.0000 C   0  0  0  0  0  0  0  0  0  0  0  0
   13.7784  -10.5805    0.0000 N   0  0  0  0  0  0  0  0  0  0  0  0
   14.2624   -9.9060    0.0000 N   0  0  0  0  0  0  0  0  0  0  0  0
   13.7705   -9.2374    0.0000 C   0  0  0  0  0  0  0  0  0  0  0  0
   14.1762   -8.5199    0.0000 N   0  0  0  0  0  0  0  0  0  0  0  0
   10.8436  -10.7403    0.0000 C   0  0  0  0  0  0  0  0  0  0  0  0
   10.1298  -10.3260    0.0000 C   0  0  0  0  0  0  0  0  0  0  0  0
    9.4163  -10.7368    0.0000 C   0  0  0  0  0  0  0  0  0  0  0  0
    9.4152  -11.5618    0.0000 N   0  0  0  0  0  0  0  0  0  0  0  0
   10.1336  -11.9742    0.0000 C   0  0  0  0  0  0  0  0  0  0  0  0
   10.8443  -11.5611    0.0000 N   0  0  0  0  0  0  0  0  0  0  0  0
   10.1358  -12.7983    0.0000 N   0  0  0  0  0  0  0  0  0  0  0  0
  7  8  1  0  0  0  0
  8  9  2  0  0  0  0
  9  5  1  0  0  0  0
  4  1  1  0  0  0  0
  9 10  1  0  0  0  0
  5  6  1  0  0  0  0
 11 12  2  0  0  0  0
  2  3  1  0  0  0  0
 12 13  1  0  0  0  0
  3  6  2  0  0  0  0
 13 14  2  0  0  0  0
  1  2  2  0  0  0  0
 14 15  1  0  0  0  0
  5  4  2  0  0  0  0
 15 16  2  0  0  0  0
 16 11  1  0  0  0  0
  2 11  1  0  0  0  0
  6  7  1  0  0  0  0
 15 17  1  0  0  0  0
M  END
> <From>
www.bindingDB.org

> <BindingDB Reactant_set_id>
50628021

> <Ligand InChI>
InChI=1S/C11H10N6/c12-10-7-2-1-6(5-9(7)16-17-10)8-3-4-14-11(13)15-8/h1-5H,(H3,12,16,17)(H2,13,14,15)

> <Ligand InChI Key>
QVWIVWPIJUYRRF-UHFFFAOYSA-N

> <BindingDB MonomerID>
50339006

> <BindingDB Ligand Name>
6-(2-Amino-4-pyrimidinyl)-1H-indazol-3-amine::6-(2-aminopyrimidin-4-yl)-1H-indazol-3-amine::CHEMBL1688215

> <Target Name>
Ribosomal protein S6 kinase beta-1

> <Target Source Organism According to Curator or DataSource>
Homo sapiens

> <Ki (nM)>


> <IC50 (nM)>
 6340

> <Kd (nM)>


> <EC50 (nM)>


> <kon (M-1-s-1)>


> <koff (s-1)>


> <pH>


> <Temp C>


> <Curation/DataSource>
ChEMBL

> <Article DOI>
10.1021/ml100136n

> <BindingDB Entry DOI>
10.7270/Q22807WJ

> <PMID>
24900229

> <PubChem AID>


> <Patent Number>


> <Authors>
Medina, JR; Blackledge, CW; Heerding, DA; Campobasso, N; Ward, P; Briand, J; Wright, L; Axten, JM.

> <Date of publication>
12/28/2010

> <Date in BindingDB>
8/24/2011

> <Institution>
TBA

> <Link to Ligand in BindingDB>
http://www.bindingdb.org/bind/chemsearch/marvin/MolStructure.jsp?monomerid=50339006

> <Link to Ligand-Target Pair in BindingDB>
http://www.bindingdb.org/jsp/dbsearch/PrimarySearch_ki.jsp?energyterm=kJ/mole&tag=pol&polymerid=2111&target=Ribosomal+protein+S6+kinase+beta-1&column=ki&startPg=0&Increment=50&submit=Search

> <Link to Ligand-Target Pair in BindingDB>
http://www.bindingdb.org/jsp/dbsearch/PrimarySearch_ki.jsp?energyterm=kJ/mole&tag=r21&monomerid=50339006&enzyme=Ribosomal+protein+S6+kinase+beta-1&column=ki&startPg=0&Increment=50&submit=Search

> <Ligand HET ID in PDB>
JMZ

> <PDB ID(s) for Ligand-Target Complex>
3NUN

> <PubChem CID of Ligand>
46215814

> <PubChem SID of Ligand>
125089108

> <ChEBI ID of Ligand>


> <ChEMBL ID of Ligand>
CHEMBL1688215

> <DrugBank ID of Ligand>


> <IUPHAR_GRAC ID of Ligand>


> <KEGG ID of Ligand>


> <ZINC ID of Ligand>
ZINC66123699

> <Number of Protein Chains in Target (bigger than 1 implies a multichain complex)>
1

> <BindingDB Target Chain Sequence>
MRRRRRRDGFYPAPDFRDREAEDMAGVFDIDLDQPEDAGSEDELEEGGQLNESMDHGGVGPYELGMEHCEKFEISETSVNRGPEKIRPECFELLRVLGKGGYGKVFQVRKVTGANTGKIFAMKVLKKAMIVRNAKDTAHTKAERNILEEVKHPFIVDLIYAFQTGGKLYLILEYLSGGELFMQLEREGIFMEDTACFYLAEISMALGHLHQKGIIYRDLKPENIMLNHQGHVKLTDFGLCKESIHDGTVTHTFCGTIEYMAPEILMRSGHNRAVDWWSLGALMYDMLTGAPPFTGENRKKTIDKILKCKLNLPPYLTQEARDLLKKLLKRNAASRLGAGPGDAGEVQAHPFFRHINWEELLARKVEPPFKPLLQSEEDVSQFDSKFTRQTPVDSPDDSTLSESANQVFLGFTYVAPSVLESVKEKFSFEPKIRSPRRFIGSPRTPVSPVKFSPGDFWGRGASASTANPQTPVEYPMETSGIEQMDVTMSGEASAPLPIRQPNSGPYKKQAFPMISKRPEHLRMNL

> <PDB ID(s) of Target Chain>
3A60,3A61,3A62,3WE4,3WF5,3WF6,3WF7,3WF8,3WF9,4L46,4RLO,4RLP

> <UniProt (SwissProt) Recommended Name of Target Chain>
Ribosomal protein S6 kinase beta-1

> <UniProt (SwissProt) Entry Name of Target Chain>
KS6B1_HUMAN

> <UniProt (SwissProt) Primary ID of Target Chain>
P23443

> <UniProt (SwissProt) Secondary ID(s) of Target Chain>
B2R779 B4DLT4 B4DTG1 E7ESB8 F6UYM1 Q7Z721

> <UniProt (SwissProt) Alternative ID(s) of Target Chain>


> <UniProt (TrEMBL) Submitted Name of Target Chain>


> <UniProt (TrEMBL) Entry Name of Target Chain>


> <UniProt (TrEMBL) Primary ID of Target Chain>


> <UniProt (TrEMBL) Secondary ID(s) of Target Chain>


> <UniProt (TrEMBL) Alternative ID(s) of Target Chain>


$$$$

  Mrv0541 11231414432D          

 17 19  0  0  0  0            999 V2000
   -2.8708  -14.9629    0.0000 C   0  0  0  0  0  0  0  0  0  0  0  0
   -2.8719  -15.7899    0.0000 C   0  0  0  0  0  0  0  0  0  0  0  0
   -2.1575  -16.2025    0.0000 C   0  0  0  0  0  0  0  0  0  0  0  0
   -2.1593  -14.5503    0.0000 C   0  0  0  0  0  0  0  0  0  0  0  0
   -1.4442  -14.9593    0.0000 C   0  0  0  0  0  0  0  0  0  0  0  0
   -1.4393  -15.7899    0.0000 C   0  0  0  0  0  0  0  0  0  0  0  0
   -0.6480  -16.0419    0.0000 N   0  0  0  0  0  0  0  0  0  0  0  0
   -0.1636  -15.3671    0.0000 N   0  0  0  0  0  0  0  0  0  0  0  0
   -0.6559  -14.6981    0.0000 C   0  0  0  0  0  0  0  0  0  0  0  0
   -0.2499  -13.9801    0.0000 N   0  0  0  0  0  0  0  0  0  0  0  0
   -3.5844  -16.2019    0.0000 C   0  0  0  0  0  0  0  0  0  0  0  0
   -4.2984  -15.7873    0.0000 C   0  0  0  0  0  0  0  0  0  0  0  0
   -5.0124  -16.1983    0.0000 C   0  0  0  0  0  0  0  0  0  0  0  0
   -5.0135  -17.0237    0.0000 N   0  0  0  0  0  0  0  0  0  0  0  0
   -4.2947  -17.4364    0.0000 C   0  0  0  0  0  0  0  0  0  0  0  0
   -3.5837  -17.0230    0.0000 C   0  0  0  0  0  0  0  0  0  0  0  0
   -4.2924  -18.2610    0.0000 N   0  0  0  0  0  0  0  0  0  0  0  0
  7  8  1  0  0  0  0
  8  9  2  0  0  0  0
  9  5  1  0  0  0  0
  4  1  1  0  0  0  0
  9 10  1  0  0  0  0
  5  6  1  0  0  0  0
 11 12  2  0  0  0  0
  2  3  1  0  0  0  0
 12 13  1  0  0  0  0
  3  6  2  0  0  0  0
 13 14  2  0  0  0  0
  1  2  2  0  0  0  0
 14 15  1  0  0  0  0
  5  4  2  0  0  0  0
 15 16  2  0  0  0  0
 16 11  1  0  0  0  0
  2 11  1  0  0  0  0
  6  7  1  0  0  0  0
 15 17  1  0  0  0  0
M  END
> <From>
www.bindingDB.org

> <BindingDB Reactant_set_id>
50628049

> <Ligand InChI>
InChI=1S/C12H11N5/c13-11-6-8(3-4-15-11)7-1-2-9-10(5-7)16-17-12(9)14/h1-6H,(H2,13,15)(H3,14,16,17)

> <Ligand InChI Key>
ZGGQWYNAIUGBBN-UHFFFAOYSA-N

> <BindingDB MonomerID>
50339024

> <BindingDB Ligand Name>
6-(2-Amino-4-pyridinyl)-1H-indazol-3-amine hydrochloride::CHEMBL1688217

> <Target Name>
3-phosphoinositide-dependent protein kinase 1

> <Target Source Organism According to Curator or DataSource>
Homo sapiens

> <Ki (nM)>


> <IC50 (nM)>
 7280

> <Kd (nM)>


> <EC50 (nM)>


> <kon (M-1-s-1)>


> <koff (s-1)>


> <pH>


> <Temp C>


> <Curation/DataSource>
ChEMBL

> <Article DOI>
10.1021/ml100136n

> <BindingDB Entry DOI>
10.7270/Q22807WJ

> <PMID>
24900229

> <PubChem AID>


> <Patent Number>


> <Authors>
Medina, JR; Blackledge, CW; Heerding, DA; Campobasso, N; Ward, P; Briand, J; Wright, L; Axten, JM.

> <Date of publication>
12/28/2010

> <Date in BindingDB>
8/24/2011

> <Institution>
TBA

> <Link to Ligand in BindingDB>
http://www.bindingdb.org/bind/chemsearch/marvin/MolStructure.jsp?monomerid=50339024

> <Link to Ligand-Target Pair in BindingDB>
http://www.bindingdb.org/jsp/dbsearch/PrimarySearch_ki.jsp?energyterm=kJ/mole&tag=pol&polymerid=1744&target=3-phosphoinositide-dependent+protein+kinase+1&column=ki&startPg=0&Increment=50&submit=Search

> <Link to Ligand-Target Pair in BindingDB>
http://www.bindingdb.org/jsp/dbsearch/PrimarySearch_ki.jsp?energyterm=kJ/mole&tag=r21&monomerid=50339024&enzyme=3-phosphoinositide-dependent+protein+kinase+1&column=ki&startPg=0&Increment=50&submit=Search

> <Ligand HET ID in PDB>


> <PDB ID(s) for Ligand-Target Complex>


> <PubChem CID of Ligand>
53319793

> <PubChem SID of Ligand>
125089126

> <ChEBI ID of Ligand>


> <ChEMBL ID of Ligand>
CHEMBL1688217

> <DrugBank ID of Ligand>


> <IUPHAR_GRAC ID of Ligand>


> <KEGG ID of Ligand>


> <ZINC ID of Ligand>
ZINC66123849

> <Number of Protein Chains in Target (bigger than 1 implies a multichain complex)>
1

> <BindingDB Target Chain Sequence>
MARTTSQLYDAVPIQSSVVLCSCPSPSMVRTQTESSTPPGIPGGSRQGPAMDGTAAEPRPGAGSLQHAQPPPQPRKKRPEDFKFGKILGEGSFSTVVLARELATSREYAIKILEKRHIIKENKVPYVTRERDVMSRLDHPFFVKLYFTFQDDEKLYFGLSYAKNGELLKYIRKIGSFDETCTRFYTAEIVSALEYLHGKGIIHRDLKPENILLNEDMHIQITDFGTAKVLSPESKQARANSFVGTAQYVSPELLTEKSACKSSDLWALGCIIYQLVAGLPPFRAGNEYLIFQKIIKLEYDFPEKFFPKARDLVEKLLVLDATKRLGCEEMEGYGPLKAHPFFESVTWENLHQQTPPKLTAYLPAMSEDDEDCYGNYDNLLSQFGCMQVSSSSSSHSLSASDTGLPQRSGSNIEQYIHDLDSNSFELDLQFSEDEKRLLLEKQAGGNPWHQFVENNLILKMGPVDKRKGLFARRRQLLLTEGPHLYYVDPVNKVLKGEIPWSQELRPEAKNFKTFFVHTPNRTYYLMDPSGNAHKWCRKIQEVWRQRYQSHPDAAVQ

> <PDB ID(s) of Target Chain>
1H1W,1OKY,1OKZ,1UU3,1UU7,1UU8,1UU9,1UVR,1W1D,1W1G,1W1H,1Z5M,2PE0,2PE1,2PE2,2R7B,2XCH,3ION,3IOP,3NAX,3NAY,3NUN,3NUS,3NUU,3NUY,3QCQ,3QCS,3QCX,3QCY,3QD0,3QD3,3QD4,3RWP,3RWQ,3SC1,5HKM,5HNG,5HO7,5HO8

> <UniProt (SwissProt) Recommended Name of Target Chain>
3-phosphoinositide-dependent protein kinase 1

> <UniProt (SwissProt) Entry Name of Target Chain>
PDPK1_HUMAN

> <UniProt (SwissProt) Primary ID of Target Chain>
O15530

> <UniProt (SwissProt) Secondary ID(s) of Target Chain>
H0Y4Z0 Q59EH6 Q6FI20 Q8IV52 Q9BRD5

> <UniProt (SwissProt) Alternative ID(s) of Target Chain>


> <UniProt (TrEMBL) Submitted Name of Target Chain>


> <UniProt (TrEMBL) Entry Name of Target Chain>


> <UniProt (TrEMBL) Primary ID of Target Chain>


> <UniProt (TrEMBL) Secondary ID(s) of Target Chain>


> <UniProt (TrEMBL) Alternative ID(s) of Target Chain>


$$$$

  Mrv0541 11231414432D          

 17 19  0  0  0  0            999 V2000
   11.5568   -9.5021    0.0000 C   0  0  0  0  0  0  0  0  0  0  0  0
   11.5556  -10.3285    0.0000 C   0  0  0  0  0  0  0  0  0  0  0  0
   12.2697  -10.7410    0.0000 C   0  0  0  0  0  0  0  0  0  0  0  0
   12.2679   -9.0898    0.0000 C   0  0  0  0  0  0  0  0  0  0  0  0
   12.9824   -9.4984    0.0000 C   0  0  0  0  0  0  0  0  0  0  0  0
   12.9873  -10.3286    0.0000 C   0  0  0  0  0  0  0  0  0  0  0  0
   13.7784  -10.5805    0.0000 N   0  0  0  0  0  0  0  0  0  0  0  0
   14.2624   -9.9060    0.0000 N   0  0  0  0  0  0  0  0  0  0  0  0
   13.7705   -9.2374    0.0000 C   0  0  0  0  0  0  0  0  0  0  0  0
   14.1762   -8.5199    0.0000 N   0  0  0  0  0  0  0  0  0  0  0  0
   10.8436  -10.7403    0.0000 C   0  0  0  0  0  0  0  0  0  0  0  0
   10.1298  -10.3260    0.0000 C   0  0  0  0  0  0  0  0  0  0  0  0
    9.4163  -10.7368    0.0000 C   0  0  0  0  0  0  0  0  0  0  0  0
    9.4152  -11.5618    0.0000 N   0  0  0  0  0  0  0  0  0  0  0  0
   10.1336  -11.9742    0.0000 C   0  0  0  0  0  0  0  0  0  0  0  0
   10.8443  -11.5611    0.0000 N   0  0  0  0  0  0  0  0  0  0  0  0
   10.1358  -12.7983    0.0000 N   0  0  0  0  0  0  0  0  0  0  0  0
  7  8  1  0  0  0  0
  8  9  2  0  0  0  0
  9  5  1  0  0  0  0
  4  1  1  0  0  0  0
  9 10  1  0  0  0  0
  5  6  1  0  0  0  0
 11 12  2  0  0  0  0
  2  3  1  0  0  0  0
 12 13  1  0  0  0  0
  3  6  2  0  0  0  0
 13 14  2  0  0  0  0
  1  2  2  0  0  0  0
 14 15  1  0  0  0  0
  5  4  2  0  0  0  0
 15 16  2  0  0  0  0
 16 11  1  0  0  0  0
  2 11  1  0  0  0  0
  6  7  1  0  0  0  0
 15 17  1  0  0  0  0
M  END
> <From>
www.bindingDB.org

> <BindingDB Reactant_set_id>
50172038

> <Ligand InChI>
InChI=1S/C11H10N6/c12-10-7-2-1-6(5-9(7)16-17-10)8-3-4-14-11(13)15-8/h1-5H,(H3,12,16,17)(H2,13,14,15)

> <Ligand InChI Key>
QVWIVWPIJUYRRF-UHFFFAOYSA-N

> <BindingDB MonomerID>
50339006

> <BindingDB Ligand Name>
6-(2-Amino-4-pyrimidinyl)-1H-indazol-3-amine::6-(2-aminopyrimidin-4-yl)-1H-indazol-3-amine::CHEMBL1688215

> <Target Name>
Serine/threonine-protein kinase Chk1

> <Target Source Organism According to Curator or DataSource>
Homo sapiens

> <Ki (nM)>


> <IC50 (nM)>
>10000

> <Kd (nM)>


> <EC50 (nM)>


> <kon (M-1-s-1)>


> <koff (s-1)>


> <pH>


> <Temp C>


> <Curation/DataSource>
ChEMBL

> <Article DOI>
10.1021/ml100136n

> <BindingDB Entry DOI>
10.7270/Q22807WJ

> <PMID>
24900229

> <PubChem AID>


> <Patent Number>


> <Authors>
Medina, JR; Blackledge, CW; Heerding, DA; Campobasso, N; Ward, P; Briand, J; Wright, L; Axten, JM.

> <Date of publication>
12/28/2010

> <Date in BindingDB>
8/24/2011

> <Institution>
TBA

> <Link to Ligand in BindingDB>
http://www.bindingdb.org/bind/chemsearch/marvin/MolStructure.jsp?monomerid=50339006

> <Link to Ligand-Target Pair in BindingDB>
http://www.bindingdb.org/jsp/dbsearch/PrimarySearch_ki.jsp?energyterm=kJ/mole&tag=pol&polymerid=4500&target=Serine%2Fthreonine-protein+kinase+Chk1&column=ki&startPg=0&Increment=50&submit=Search

> <Link to Ligand-Target Pair in BindingDB>
http://www.bindingdb.org/jsp/dbsearch/PrimarySearch_ki.jsp?energyterm=kJ/mole&tag=r21&monomerid=50339006&enzyme=Serine%2Fthreonine-protein+kinase+Chk1&column=ki&startPg=0&Increment=50&submit=Search

> <Ligand HET ID in PDB>
JMZ

> <PDB ID(s) for Ligand-Target Complex>
3NUN

> <PubChem CID of Ligand>
46215814

> <PubChem SID of Ligand>
125089108

> <ChEBI ID of Ligand>


> <ChEMBL ID of Ligand>
CHEMBL1688215

> <DrugBank ID of Ligand>


> <IUPHAR_GRAC ID of Ligand>


> <KEGG ID of Ligand>


> <ZINC ID of Ligand>
ZINC66123699

> <Number of Protein Chains in Target (bigger than 1 implies a multichain complex)>
1

> <BindingDB Target Chain Sequence>
MAVPFVEDWDLVQTLGEGAYGEVQLAVNRVTEEAVAVKIVDMKRAVDCPENIKKEICINKMLNHENVVKFYGHRREGNIQYLFLEYCSGGELFDRIEPDIGMPEPDAQRFFHQLMAGVVYLHGIGITHRDIKPENLLLDERDNLKISDFGLATVFRYNNRERLLNKMCGTLPYVAPELLKRREFHAEPVDVWSCGIVLTAMLAGELPWDQPSDSCQEYSDWKEKKTYLNPWKKIDSAPLALLHKILVENPSARITIPDIKKDRWYNKPLKKGAKRPRVTSGGVSESPSGFSKHIQSNLDFSPVNSASSEENVKYSSSQPEPRTGLSLWDTSPSYIDKLVQGISFSQPTCPDHMLLNSQLLGTPGSSQNPWQRLVKRMTRFFTKLDADKSYQCLKETCEKLGYQWKKSCMNQVTISTTDRRNNKLIFKVNLLEMDDKILVDFRLSKGDGLEFKRHFLKIKGKLIDIVSSQKIWLPAT

> <PDB ID(s) of Target Chain>
1IA8,1NVQ,1NVR,1NVS,1ZYS,2AYP,2E9N,2E9O,2E9P,2E9U,2E9V,2GHG,2HOG,2HXL,2HXQ,2HY0,2QHM,2QHN,2R0U,2WMQ,2WMR,2WMS,2WMT,2WMU,2WMV,2WMW,2WMX,2X8D,2X8E,2X8I,2XEY,2XEZ,2XF0,2YDI,2YDJ,2YDK,2YER,2YEX,2YM3,2YM4,2YM5,2YM6,2YM7,2YM8,2YWP,3F9N,3JVR,3JVS,3OT3,3OT8,3PA3,3PA4,3PA5,3TKH,3TKI,3U9N,4FSM,4FSQ,4FSR,4FST,4FSW,4FSY,4FSZ,4FT0,4FT3,4FT5,4FT7,4FT9,4FTA,4FTC,4FTI,4FTJ,4FTK,4FTL,4FTM,4FTN,4FTO,4FTQ,4FTR,4FTT,4FTU,4GH2,4HYH,4HYI,4JIK,5F4N,5OQ5,5OQ7,6FC8,6FCF,6FCK

> <UniProt (SwissProt) Recommended Name of Target Chain>
Serine/threonine-protein kinase Chk1

> <UniProt (SwissProt) Entry Name of Target Chain>
CHK1_HUMAN

> <UniProt (SwissProt) Primary ID of Target Chain>
O14757

> <UniProt (SwissProt) Secondary ID(s) of Target Chain>
A8K934 B4DDD0 B4DSK3 B5BTY6 F5H7S4 H2BI51

> <UniProt (SwissProt) Alternative ID(s) of Target Chain>


> <UniProt (TrEMBL) Submitted Name of Target Chain>


> <UniProt (TrEMBL) Entry Name of Target Chain>


> <UniProt (TrEMBL) Primary ID of Target Chain>


> <UniProt (TrEMBL) Secondary ID(s) of Target Chain>


> <UniProt (TrEMBL) Alternative ID(s) of Target Chain>


$$$$

  Mrv0541 11231414432D          

 17 19  0  0  0  0            999 V2000
   11.5568   -9.5021    0.0000 C   0  0  0  0  0  0  0  0  0  0  0  0
   11.5556  -10.3285    0.0000 C   0  0  0  0  0  0  0  0  0  0  0  0
   12.2697  -10.7410    0.0000 C   0  0  0  0  0  0  0  0  0  0  0  0
   12.2679   -9.0898    0.0000 C   0  0  0  0  0  0  0  0  0  0  0  0
   12.9824   -9.4984    0.0000 C   0  0  0  0  0  0  0  0  0  0  0  0
   12.9873  -10.3286    0.0000 C   0  0  0  0  0  0  0  0  0  0  0  0
   13.7784  -10.5805    0.0000 N   0  0  0  0  0  0  0  0  0  0  0  0
   14.2624   -9.9060    0.0000 N   0  0  0  0  0  0  0  0  0  0  0  0
   13.7705   -9.2374    0.0000 C   0  0  0  0  0  0  0  0  0  0  0  0
   14.1762   -8.5199    0.0000 N   0  0  0  0  0  0  0  0  0  0  0  0
   10.8436  -10.7403    0.0000 C   0  0  0  0  0  0  0  0  0  0  0  0
   10.1298  -10.3260    0.0000 C   0  0  0  0  0  0  0  0  0  0  0  0
    9.4163  -10.7368    0.0000 C   0  0  0  0  0  0  0  0  0  0  0  0
    9.4152  -11.5618    0.0000 N   0  0  0  0  0  0  0  0  0  0  0  0
   10.1336  -11.9742    0.0000 C   0  0  0  0  0  0  0  0  0  0  0  0
   10.8443  -11.5611    0.0000 N   0  0  0  0  0  0  0  0  0  0  0  0
   10.1358  -12.7983    0.0000 N   0  0  0  0  0  0  0  0  0  0  0  0
  7  8  1  0  0  0  0
  8  9  2  0  0  0  0
  9  5  1  0  0  0  0
  4  1  1  0  0  0  0
  9 10  1  0  0  0  0
  5  6  1  0  0  0  0
 11 12  2  0  0  0  0
  2  3  1  0  0  0  0
 12 13  1  0  0  0  0
  3  6  2  0  0  0  0
 13 14  2  0  0  0  0
  1  2  2  0  0  0  0
 14 15  1  0  0  0  0
  5  4  2  0  0  0  0
 15 16  2  0  0  0  0
 16 11  1  0  0  0  0
  2 11  1  0  0  0  0
  6  7  1  0  0  0  0
 15 17  1  0  0  0  0
M  END
> <From>
www.bindingDB.org

> <BindingDB Reactant_set_id>
50172039

> <Ligand InChI>
InChI=1S/C11H10N6/c12-10-7-2-1-6(5-9(7)16-17-10)8-3-4-14-11(13)15-8/h1-5H,(H3,12,16,17)(H2,13,14,15)

> <Ligand InChI Key>
QVWIVWPIJUYRRF-UHFFFAOYSA-N

> <BindingDB MonomerID>
50339006

> <BindingDB Ligand Name>
6-(2-Amino-4-pyrimidinyl)-1H-indazol-3-amine::6-(2-aminopyrimidin-4-yl)-1H-indazol-3-amine::CHEMBL1688215

> <Target Name>
Insulin receptor

> <Target Source Organism According to Curator or DataSource>
Homo sapiens

> <Ki (nM)>


> <IC50 (nM)>
>10000

> <Kd (nM)>


> <EC50 (nM)>


> <kon (M-1-s-1)>


> <koff (s-1)>


> <pH>


> <Temp C>


> <Curation/DataSource>
ChEMBL

> <Article DOI>
10.1021/ml100136n

> <BindingDB Entry DOI>
10.7270/Q22807WJ

> <PMID>
24900229

> <PubChem AID>


> <Patent Number>


> <Authors>
Medina, JR; Blackledge, CW; Heerding, DA; Campobasso, N; Ward, P; Briand, J; Wright, L; Axten, JM.

> <Date of publication>
12/28/2010

> <Date in BindingDB>
8/24/2011

> <Institution>
TBA

> <Link to Ligand in BindingDB>
http://www.bindingdb.org/bind/chemsearch/marvin/MolStructure.jsp?monomerid=50339006

> <Link to Ligand-Target Pair in BindingDB>
http://www.bindingdb.org/jsp/dbsearch/PrimarySearch_ki.jsp?energyterm=kJ/mole&tag=pol&polymerid=858&target=Insulin+receptor&column=ki&startPg=0&Increment=50&submit=Search

> <Link to Ligand-Target Pair in BindingDB>
http://www.bindingdb.org/jsp/dbsearch/PrimarySearch_ki.jsp?energyterm=kJ/mole&tag=r21&monomerid=50339006&enzyme=Insulin+receptor&column=ki&startPg=0&Increment=50&submit=Search

> <Ligand HET ID in PDB>
JMZ

> <PDB ID(s) for Ligand-Target Complex>
3NUN

> <PubChem CID of Ligand>
46215814

> <PubChem SID of Ligand>
125089108

> <ChEBI ID of Ligand>


> <ChEMBL ID of Ligand>
CHEMBL1688215

> <DrugBank ID of Ligand>


> <IUPHAR_GRAC ID of Ligand>


> <KEGG ID of Ligand>


> <ZINC ID of Ligand>
ZINC66123699

> <Number of Protein Chains in Target (bigger than 1 implies a multichain complex)>
1

> <BindingDB Target Chain Sequence>
MATGGRRGAAAAPLLVAVAALLLGAAGHLYPGEVCPGMDIRNNLTRLHELENCSVIEGHLQILLMFKTRPEDFRDLSFPKLIMITDYLLLFRVYGLESLKDLFPNLTVIRGSRLFFNYALVIFEMVHLKELGLYNLMNITRGSVRIEKNNELCYLATIDWSRILDSVEDNYIVLNKDDNEECGDICPGTAKGKTNCPATVINGQFVERCWTHSHCQKVCPTICKSHGCTAEGLCCHSECLGNCSQPDDPTKCVACRNFYLDGRCVETCPPPYYHFQDWRCVNFSFCQDLHHKCKNSRRQGCHQYVIHNNKCIPECPSGYTMNSSNLLCTPCLGPCPKVCHLLEGEKTIDSVTSAQELRGCTVINGSLIINIRGGNNLAAELEANLGLIEEISGYLKIRRSYALVSLSFFRKLRLIRGETLEIGNYSFYALDNQNLRQLWDWSKHNLTITQGKLFFHYNPKLCLSEIHKMEEVSGTKGRQERNDIALKTNGDQASCENELLKFSYIRTSFDKILLRWEPYWPPDFRDLLGFMLFYKEAPYQNVTEFDGQDACGSNSWTVVDIDPPLRSNDPKSQNHPGWLMRGLKPWTQYAIFVKTLVTFSDERRTYGAKSDIIYVQTDATNPSVPLDPISVSNSSSQIILKWKPPSDPNGNITHYLVFWERQAEDSELFELDYCLKGLKLPSRTWSPPFESEDSQKHNQSEYEDSAGECCSCPKTDSQILKELEESSFRKTFEDYLHNVVFVPRKTSSGTGAEDPRPSRKRRSLGDVGNVTVAVPTVAAFPNTSSTSVPTSPEEHRPFEKVVNKESLVISGLRHFTGYRIELQACNQDTPEERCSVAAYVSARTMPEAKADDIVGPVTHEIFENNVVHLMWQEPKEPNGLIVLYEVSYRRYGDEELHLCVSRKHFALERGCRLRGLSPGNYSVRIRATSLAGNGSWTEPTYFYVTDYLDVPSNIAKIIIGPLIFVFLFSVVIGSIYLFLRKRQPDGPLGPLYASSNPEYLSASDVFPCSVYVPDEWEVSREKITLLRELGQGSFGMVYEGNARDIIKGEAETRVAVKTVNESASLRERIEFLNEASVMKGFTCHHVVRLLGVVSKGQPTLVVMELMAHGDLKSYLRSLRPEAENNPGRPPPTLQEMIQMAAEIADGMAYLNAKKFVHRDLAARNCMVAHDFTVKIGDFGMTRDIYETDYYRKGGKGLLPVRWMAPESLKDGVFTTSSDMWSFGVVLWEITSLAEQPYQGLSNEQVLKFVMDGGYLDQPDNCPERVTDLMRMCWQFNPKMRPTFLEIVNLLKDDLHPSFPEVSFFHSEENKAPESEELEMEFEDMENVPLDRSSHCQREEAGGRDGGSSLGFKRSYEEHIPYTHMNGGKKNGRILTLPRSNPS

> <PDB ID(s) of Target Chain>
1I44,1P14,2MFR,3EKK,3EKN,3ETA,6SOF,7BW7,7BW8,7BWA,7QID

> <UniProt (SwissProt) Recommended Name of Target Chain>
Insulin receptor

> <UniProt (SwissProt) Entry Name of Target Chain>
INSR_HUMAN

> <UniProt (SwissProt) Primary ID of Target Chain>
P06213

> <UniProt (SwissProt) Secondary ID(s) of Target Chain>
Q17RW0 Q59H98 Q9UCB7 Q9UCB8 Q9UCB9

> <UniProt (SwissProt) Alternative ID(s) of Target Chain>


> <UniProt (TrEMBL) Submitted Name of Target Chain>


> <UniProt (TrEMBL) Entry Name of Target Chain>


> <UniProt (TrEMBL) Primary ID of Target Chain>


> <UniProt (TrEMBL) Secondary ID(s) of Target Chain>


> <UniProt (TrEMBL) Alternative ID(s) of Target Chain>


$$$$

  Mrv0541 11231414432D          

 17 19  0  0  0  0            999 V2000
   11.5568   -9.5021    0.0000 C   0  0  0  0  0  0  0  0  0  0  0  0
   11.5556  -10.3285    0.0000 C   0  0  0  0  0  0  0  0  0  0  0  0
   12.2697  -10.7410    0.0000 C   0  0  0  0  0  0  0  0  0  0  0  0
   12.2679   -9.0898    0.0000 C   0  0  0  0  0  0  0  0  0  0  0  0
   12.9824   -9.4984    0.0000 C   0  0  0  0  0  0  0  0  0  0  0  0
   12.9873  -10.3286    0.0000 C   0  0  0  0  0  0  0  0  0  0  0  0
   13.7784  -10.5805    0.0000 N   0  0  0  0  0  0  0  0  0  0  0  0
   14.2624   -9.9060    0.0000 N   0  0  0  0  0  0  0  0  0  0  0  0
   13.7705   -9.2374    0.0000 C   0  0  0  0  0  0  0  0  0  0  0  0
   14.1762   -8.5199    0.0000 N   0  0  0  0  0  0  0  0  0  0  0  0
   10.8436  -10.7403    0.0000 C   0  0  0  0  0  0  0  0  0  0  0  0
   10.1298  -10.3260    0.0000 C   0  0  0  0  0  0  0  0  0  0  0  0
    9.4163  -10.7368    0.0000 C   0  0  0  0  0  0  0  0  0  0  0  0
    9.4152  -11.5618    0.0000 N   0  0  0  0  0  0  0  0  0  0  0  0
   10.1336  -11.9742    0.0000 C   0  0  0  0  0  0  0  0  0  0  0  0
   10.8443  -11.5611    0.0000 N   0  0  0  0  0  0  0  0  0  0  0  0
   10.1358  -12.7983    0.0000 N   0  0  0  0  0  0  0  0  0  0  0  0
  7  8  1  0  0  0  0
  8  9  2  0  0  0  0
  9  5  1  0  0  0  0
  4  1  1  0  0  0  0
  9 10  1  0  0  0  0
  5  6  1  0  0  0  0
 11 12  2  0  0  0  0
  2  3  1  0  0  0  0
 12 13  1  0  0  0  0
  3  6  2  0  0  0  0
 13 14  2  0  0  0  0
  1  2  2  0  0  0  0
 14 15  1  0  0  0  0
  5  4  2  0  0  0  0
 15 16  2  0  0  0  0
 16 11  1  0  0  0  0
  2 11  1  0  0  0  0
  6  7  1  0  0  0  0
 15 17  1  0  0  0  0
M  END
> <From>
www.bindingDB.org

> <BindingDB Reactant_set_id>
50628027

> <Ligand InChI>
InChI=1S/C11H10N6/c12-10-7-2-1-6(5-9(7)16-17-10)8-3-4-14-11(13)15-8/h1-5H,(H3,12,16,17)(H2,13,14,15)

> <Ligand InChI Key>
QVWIVWPIJUYRRF-UHFFFAOYSA-N

> <BindingDB MonomerID>
50339006

> <BindingDB Ligand Name>
6-(2-Amino-4-pyrimidinyl)-1H-indazol-3-amine::6-(2-aminopyrimidin-4-yl)-1H-indazol-3-amine::CHEMBL1688215

> <Target Name>
Phosphatidylinositol 4,5-bisphosphate 3-kinase catalytic subunit alpha isoform

> <Target Source Organism According to Curator or DataSource>
Homo sapiens

> <Ki (nM)>


> <IC50 (nM)>
>10000

> <Kd (nM)>


> <EC50 (nM)>


> <kon (M-1-s-1)>


> <koff (s-1)>


> <pH>


> <Temp C>


> <Curation/DataSource>
ChEMBL

> <Article DOI>
10.1021/ml100136n

> <BindingDB Entry DOI>
10.7270/Q22807WJ

> <PMID>
24900229

> <PubChem AID>


> <Patent Number>


> <Authors>
Medina, JR; Blackledge, CW; Heerding, DA; Campobasso, N; Ward, P; Briand, J; Wright, L; Axten, JM.

> <Date of publication>
12/28/2010

> <Date in BindingDB>
8/24/2011

> <Institution>
TBA

> <Link to Ligand in BindingDB>
http://www.bindingdb.org/bind/chemsearch/marvin/MolStructure.jsp?monomerid=50339006

> <Link to Ligand-Target Pair in BindingDB>
http://www.bindingdb.org/jsp/dbsearch/PrimarySearch_ki.jsp?energyterm=kJ/mole&tag=pol&polymerid=1622&target=Phosphatidylinositol+4%2C5-bisphosphate+3-kinase+catalytic+subunit+alpha+isoform&column=ki&startPg=0&Increment=50&submit=Search

> <Link to Ligand-Target Pair in BindingDB>
http://www.bindingdb.org/jsp/dbsearch/PrimarySearch_ki.jsp?energyterm=kJ/mole&tag=r21&monomerid=50339006&enzyme=Phosphatidylinositol+4%2C5-bisphosphate+3-kinase+catalytic+subunit+alpha+isoform&column=ki&startPg=0&Increment=50&submit=Search

> <Ligand HET ID in PDB>
JMZ

> <PDB ID(s) for Ligand-Target Complex>
3NUN

> <PubChem CID of Ligand>
46215814

> <PubChem SID of Ligand>
125089108

> <ChEBI ID of Ligand>


> <ChEMBL ID of Ligand>
CHEMBL1688215

> <DrugBank ID of Ligand>


> <IUPHAR_GRAC ID of Ligand>


> <KEGG ID of Ligand>


> <ZINC ID of Ligand>
ZINC66123699

> <Number of Protein Chains in Target (bigger than 1 implies a multichain complex)>
1

> <BindingDB Target Chain Sequence>
MPPRPSSGELWGIHLMPPRILVECLLPNGMIVTLECLREATLITIKHELFKEARKYPLHQLLQDESSYIFVSVTQEAEREEFFDETRRLCDLRLFQPFLKVIEPVGNREEKILNREIGFAIGMPVCEFDMVKDPEVQDFRRNILNVCKEAVDLRDLNSPHSRAMYVYPPNVESSPELPKHIYNKLDKGQIIVVIWVIVSPNNDKQKYTLKINHDCVPEQVIAEAIRKKTRSMLLSSEQLKLCVLEYQGKYILKVCGCDEYFLEKYPLSQYKYIRSCIMLGRMPNLMLMAKESLYSQLPMDCFTMPSYSRRISTATPYMNGETSTKSLWVINSALRIKILCATYVNVNIRDIDKIYVRTGIYHGGEPLCDNVNTQRVPCSNPRWNEWLNYDIYIPDLPRAARLCLSICSVKGRKGAKEEHCPLAWGNINLFDYTDTLVSGKMALNLWPVPHGLEDLLNPIGVTGSNPNKETPCLELEFDWFSSVVKFPDMSVIEEHANWSVSREAGFSYSHAGLSNRLARDNELRENDKEQLKAISTRDPLSEITEQEKDFLWSHRHYCVTIPEILPKLLLSVKWNSRDEVAQMYCLVKDWPPIKPEQAMELLDCNYPDPMVRGFAVRCLEKYLTDDKLSQYLIQLVQVLKYEQYLDNLLVRFLLKKALTNQRIGHFFFWHLKSEMHNKTVSQRFGLLLESYCRACGMYLKHLNRQVEAMEKLINLTDILKQEKKDETQKVQMKFLVEQMRRPDFMDALQGFLSPLNPAHQLGNLRLEECRIMSSAKRPLWLNWENPDIMSELLFQNNEIIFKNGDDLRQDMLTLQIIRIMENIWQNQGLDLRMLPYGCLSIGDCVGLIEVVRNSHTIMQIQCKGGLKGALQFNSHTLHQWLKDKNKGEIYDAAIDLFTRSCAGYCVATFILGIGDRHNSNIMVKDDGQLFHIDFGHFLDHKKKKFGYKRERVPFVLTQDFLIVISKGAQECTKTREFERFQEMCYKAYLAIRQHANLFINLFSMMLGSGMPELQSFDDIAYIRKTLALDKTEQEALEYFMKQMNDAHHGGWTTKMDWIFHTIKQHALN

> <PDB ID(s) of Target Chain>
2ENQ,2RD0,2V1Y,3ZIM,4L1B,4L23,4L2Y,4OVU,4OVV,4TUU,4TV3,4YKN,5DXH,5DXT,5SW8,5SWG,5SWO,5SWP,5SWR,5SWT,5SX8,5SX9,5SXA,5SXB,5SXC,5SXD,5SXE,5SXF,5SXI,5SXJ,5SXK,5UBR,5XGH,5XGI,5XGJ,6GVF,6GVG,6GVH,6GVI,6NCT,6OAC,6PYS,6VO7,7JIU,7K6M,7K6N,7K6O,7K71,7MLK,7MYN,7MYO,7R9V,7R9Y,8BFU,8BFV,8DCP,8DCX,8DD4,8DD8

> <UniProt (SwissProt) Recommended Name of Target Chain>
Phosphatidylinositol 4,5-bisphosphate 3-kinase catalytic subunit alpha isoform

> <UniProt (SwissProt) Entry Name of Target Chain>
PK3CA_HUMAN

> <UniProt (SwissProt) Primary ID of Target Chain>
P42336

> <UniProt (SwissProt) Secondary ID(s) of Target Chain>
Q14CW1 Q99762

> <UniProt (SwissProt) Alternative ID(s) of Target Chain>


> <UniProt (TrEMBL) Submitted Name of Target Chain>


> <UniProt (TrEMBL) Entry Name of Target Chain>


> <UniProt (TrEMBL) Primary ID of Target Chain>


> <UniProt (TrEMBL) Secondary ID(s) of Target Chain>


> <UniProt (TrEMBL) Alternative ID(s) of Target Chain>


$$$$

  Mrv0541 11231414432D          

 17 19  0  0  0  0            999 V2000
   11.5568   -9.5021    0.0000 C   0  0  0  0  0  0  0  0  0  0  0  0
   11.5556  -10.3285    0.0000 C   0  0  0  0  0  0  0  0  0  0  0  0
   12.2697  -10.7410    0.0000 C   0  0  0  0  0  0  0  0  0  0  0  0
   12.2679   -9.0898    0.0000 C   0  0  0  0  0  0  0  0  0  0  0  0
   12.9824   -9.4984    0.0000 C   0  0  0  0  0  0  0  0  0  0  0  0
   12.9873  -10.3286    0.0000 C   0  0  0  0  0  0  0  0  0  0  0  0
   13.7784  -10.5805    0.0000 N   0  0  0  0  0  0  0  0  0  0  0  0
   14.2624   -9.9060    0.0000 N   0  0  0  0  0  0  0  0  0  0  0  0
   13.7705   -9.2374    0.0000 C   0  0  0  0  0  0  0  0  0  0  0  0
   14.1762   -8.5199    0.0000 N   0  0  0  0  0  0  0  0  0  0  0  0
   10.8436  -10.7403    0.0000 C   0  0  0  0  0  0  0  0  0  0  0  0
   10.1298  -10.3260    0.0000 C   0  0  0  0  0  0  0  0  0  0  0  0
    9.4163  -10.7368    0.0000 C   0  0  0  0  0  0  0  0  0  0  0  0
    9.4152  -11.5618    0.0000 N   0  0  0  0  0  0  0  0  0  0  0  0
   10.1336  -11.9742    0.0000 C   0  0  0  0  0  0  0  0  0  0  0  0
   10.8443  -11.5611    0.0000 N   0  0  0  0  0  0  0  0  0  0  0  0
   10.1358  -12.7983    0.0000 N   0  0  0  0  0  0  0  0  0  0  0  0
  7  8  1  0  0  0  0
  8  9  2  0  0  0  0
  9  5  1  0  0  0  0
  4  1  1  0  0  0  0
  9 10  1  0  0  0  0
  5  6  1  0  0  0  0
 11 12  2  0  0  0  0
  2  3  1  0  0  0  0
 12 13  1  0  0  0  0
  3  6  2  0  0  0  0
 13 14  2  0  0  0  0
  1  2  2  0  0  0  0
 14 15  1  0  0  0  0
  5  4  2  0  0  0  0
 15 16  2  0  0  0  0
 16 11  1  0  0  0  0
  2 11  1  0  0  0  0
  6  7  1  0  0  0  0
 15 17  1  0  0  0  0
M  END
> <From>
www.bindingDB.org

> <BindingDB Reactant_set_id>
50628028

> <Ligand InChI>
InChI=1S/C11H10N6/c12-10-7-2-1-6(5-9(7)16-17-10)8-3-4-14-11(13)15-8/h1-5H,(H3,12,16,17)(H2,13,14,15)

> <Ligand InChI Key>
QVWIVWPIJUYRRF-UHFFFAOYSA-N

> <BindingDB MonomerID>
50339006

> <BindingDB Ligand Name>
6-(2-Amino-4-pyrimidinyl)-1H-indazol-3-amine::6-(2-aminopyrimidin-4-yl)-1H-indazol-3-amine::CHEMBL1688215

> <Target Name>
Serine/threonine-protein kinase Sgk1

> <Target Source Organism According to Curator or DataSource>
Homo sapiens

> <Ki (nM)>


> <IC50 (nM)>
>10000

> <Kd (nM)>


> <EC50 (nM)>


> <kon (M-1-s-1)>


> <koff (s-1)>


> <pH>


> <Temp C>


> <Curation/DataSource>
ChEMBL

> <Article DOI>
10.1021/ml100136n

> <BindingDB Entry DOI>
10.7270/Q22807WJ

> <PMID>
24900229

> <PubChem AID>


> <Patent Number>


> <Authors>
Medina, JR; Blackledge, CW; Heerding, DA; Campobasso, N; Ward, P; Briand, J; Wright, L; Axten, JM.

> <Date of publication>
12/28/2010

> <Date in BindingDB>
8/24/2011

> <Institution>
TBA

> <Link to Ligand in BindingDB>
http://www.bindingdb.org/bind/chemsearch/marvin/MolStructure.jsp?monomerid=50339006

> <Link to Ligand-Target Pair in BindingDB>
http://www.bindingdb.org/jsp/dbsearch/PrimarySearch_ki.jsp?energyterm=kJ/mole&tag=pol&polymerid=1964&target=Serine%2Fthreonine-protein+kinase+Sgk1&column=ki&startPg=0&Increment=50&submit=Search

> <Link to Ligand-Target Pair in BindingDB>
http://www.bindingdb.org/jsp/dbsearch/PrimarySearch_ki.jsp?energyterm=kJ/mole&tag=r21&monomerid=50339006&enzyme=Serine%2Fthreonine-protein+kinase+Sgk1&column=ki&startPg=0&Increment=50&submit=Search

> <Ligand HET ID in PDB>
JMZ

> <PDB ID(s) for Ligand-Target Complex>
3NUN

> <PubChem CID of Ligand>
46215814

> <PubChem SID of Ligand>
125089108

> <ChEBI ID of Ligand>


> <ChEMBL ID of Ligand>
CHEMBL1688215

> <DrugBank ID of Ligand>


> <IUPHAR_GRAC ID of Ligand>


> <KEGG ID of Ligand>


> <ZINC ID of Ligand>
ZINC66123699

> <Number of Protein Chains in Target (bigger than 1 implies a multichain complex)>
1

> <BindingDB Target Chain Sequence>
MTVKTEAAKGTLTYSRMRGMVAILIAFMKQRRMGLNDFIQKIANNSYACKHPEVQSILKISQPQEPELMNANPSPPPSPSQQINLGPSSNPHAKPSDFHFLKVIGKGSFGKVLLARHKAEEVFYAVKVLQKKAILKKKEEKHIMSERNVLLKNVKHPFLVGLHFSFQTADKLYFVLDYINGGELFYHLQRERCFLEPRARFYAAEIASALGYLHSLNIVYRDLKPENILLDSQGHIVLTDFGLCKENIEHNSTTSTFCGTPEYLAPEVLHKQPYDRTVDWWCLGAVLYEMLYGLPPFYSRNTAEMYDNILNKPLQLKPNITNSARHLLEGLLQKDRTKRLGAKDDFMEIKSHVFFSLINWDDLINKKITPPFNPNVSGPNDLRHFDPEFTEEPVPNSIGKSPDSVLVTASVKEAAEAFLGFSYAPPTDSFL

> <PDB ID(s) of Target Chain>


> <UniProt (SwissProt) Recommended Name of Target Chain>
Serine/threonine-protein kinase Sgk1

> <UniProt (SwissProt) Entry Name of Target Chain>
SGK1_HUMAN

> <UniProt (SwissProt) Primary ID of Target Chain>
O00141

> <UniProt (SwissProt) Secondary ID(s) of Target Chain>
B7UUP7 B7UUP8 B7UUP9 B7Z5B2 E1P583 Q5TCN2 Q5TCN3 Q5TCN4 Q5VY65 Q9UN56

> <UniProt (SwissProt) Alternative ID(s) of Target Chain>


> <UniProt (TrEMBL) Submitted Name of Target Chain>


> <UniProt (TrEMBL) Entry Name of Target Chain>


> <UniProt (TrEMBL) Primary ID of Target Chain>


> <UniProt (TrEMBL) Secondary ID(s) of Target Chain>


> <UniProt (TrEMBL) Alternative ID(s) of Target Chain>


$$$$

  Mrv0541 11231414432D          

 17 19  0  0  0  0            999 V2000
   11.5568   -9.5021    0.0000 C   0  0  0  0  0  0  0  0  0  0  0  0
   11.5556  -10.3285    0.0000 C   0  0  0  0  0  0  0  0  0  0  0  0
   12.2697  -10.7410    0.0000 C   0  0  0  0  0  0  0  0  0  0  0  0
   12.2679   -9.0898    0.0000 C   0  0  0  0  0  0  0  0  0  0  0  0
   12.9824   -9.4984    0.0000 C   0  0  0  0  0  0  0  0  0  0  0  0
   12.9873  -10.3286    0.0000 C   0  0  0  0  0  0  0  0  0  0  0  0
   13.7784  -10.5805    0.0000 N   0  0  0  0  0  0  0  0  0  0  0  0
   14.2624   -9.9060    0.0000 N   0  0  0  0  0  0  0  0  0  0  0  0
   13.7705   -9.2374    0.0000 C   0  0  0  0  0  0  0  0  0  0  0  0
   14.1762   -8.5199    0.0000 N   0  0  0  0  0  0  0  0  0  0  0  0
   10.8436  -10.7403    0.0000 C   0  0  0  0  0  0  0  0  0  0  0  0
   10.1298  -10.3260    0.0000 C   0  0  0  0  0  0  0  0  0  0  0  0
    9.4163  -10.7368    0.0000 C   0  0  0  0  0  0  0  0  0  0  0  0
    9.4152  -11.5618    0.0000 N   0  0  0  0  0  0  0  0  0  0  0  0
   10.1336  -11.9742    0.0000 C   0  0  0  0  0  0  0  0  0  0  0  0
   10.8443  -11.5611    0.0000 N   0  0  0  0  0  0  0  0  0  0  0  0
   10.1358  -12.7983    0.0000 N   0  0  0  0  0  0  0  0  0  0  0  0
  7  8  1  0  0  0  0
  8  9  2  0  0  0  0
  9  5  1  0  0  0  0
  4  1  1  0  0  0  0
  9 10  1  0  0  0  0
  5  6  1  0  0  0  0
 11 12  2  0  0  0  0
  2  3  1  0  0  0  0
 12 13  1  0  0  0  0
  3  6  2  0  0  0  0
 13 14  2  0  0  0  0
  1  2  2  0  0  0  0
 14 15  1  0  0  0  0
  5  4  2  0  0  0  0
 15 16  2  0  0  0  0
 16 11  1  0  0  0  0
  2 11  1  0  0  0  0
  6  7  1  0  0  0  0
 15 17  1  0  0  0  0
M  END
> <From>
www.bindingDB.org

> <BindingDB Reactant_set_id>
50628026

> <Ligand InChI>
InChI=1S/C11H10N6/c12-10-7-2-1-6(5-9(7)16-17-10)8-3-4-14-11(13)15-8/h1-5H,(H3,12,16,17)(H2,13,14,15)

> <Ligand InChI Key>
QVWIVWPIJUYRRF-UHFFFAOYSA-N

> <BindingDB MonomerID>
50339006

> <BindingDB Ligand Name>
6-(2-Amino-4-pyrimidinyl)-1H-indazol-3-amine::6-(2-aminopyrimidin-4-yl)-1H-indazol-3-amine::CHEMBL1688215

> <Target Name>
Mitogen-activated protein kinase 8

> <Target Source Organism According to Curator or DataSource>
Homo sapiens

> <Ki (nM)>


> <IC50 (nM)>
>10000

> <Kd (nM)>


> <EC50 (nM)>


> <kon (M-1-s-1)>


> <koff (s-1)>


> <pH>


> <Temp C>


> <Curation/DataSource>
ChEMBL

> <Article DOI>
10.1021/ml100136n

> <BindingDB Entry DOI>
10.7270/Q22807WJ

> <PMID>
24900229

> <PubChem AID>


> <Patent Number>


> <Authors>
Medina, JR; Blackledge, CW; Heerding, DA; Campobasso, N; Ward, P; Briand, J; Wright, L; Axten, JM.

> <Date of publication>
12/28/2010

> <Date in BindingDB>
8/24/2011

> <Institution>
TBA

> <Link to Ligand in BindingDB>
http://www.bindingdb.org/bind/chemsearch/marvin/MolStructure.jsp?monomerid=50339006

> <Link to Ligand-Target Pair in BindingDB>
http://www.bindingdb.org/jsp/dbsearch/PrimarySearch_ki.jsp?energyterm=kJ/mole&tag=pol&polymerid=1662&target=Mitogen-activated+protein+kinase+8&column=ki&startPg=0&Increment=50&submit=Search

> <Link to Ligand-Target Pair in BindingDB>
http://www.bindingdb.org/jsp/dbsearch/PrimarySearch_ki.jsp?energyterm=kJ/mole&tag=r21&monomerid=50339006&enzyme=Mitogen-activated+protein+kinase+8&column=ki&startPg=0&Increment=50&submit=Search

> <Ligand HET ID in PDB>
JMZ

> <PDB ID(s) for Ligand-Target Complex>
3NUN

> <PubChem CID of Ligand>
46215814

> <PubChem SID of Ligand>
125089108

> <ChEBI ID of Ligand>


> <ChEMBL ID of Ligand>
CHEMBL1688215

> <DrugBank ID of Ligand>


> <IUPHAR_GRAC ID of Ligand>


> <KEGG ID of Ligand>


> <ZINC ID of Ligand>
ZINC66123699

> <Number of Protein Chains in Target (bigger than 1 implies a multichain complex)>
1

> <BindingDB Target Chain Sequence>
MSRSKRDNNFYSVEIGDSTFTVLKRYQNLKPIGSGAQGIVCAAYDAILERNVAIKKLSRPFQNQTHAKRAYRELVLMKCVNHKNIIGLLNVFTPQKSLEEFQDVYIVMELMDANLCQVIQMELDHERMSYLLYQMLCGIKHLHSAGIIHRDLKPSNIVVKSDCTLKILDFGLARTAGTSFMMTPYVVTRYYRAPEVILGMGYKENVDLWSVGCIMGEMVCHKILFPGRDYIDQWNKVIEQLGTPCPEFMKKLQPTVRTYVENRPKYAGYSFEKLFPDVLFPADSEHNKLKASQARDLLSKMLVIDASKRISVDEALQHPYINVWYDPSEAEAPPPKIPDKQLDEREHTIEEWKELIYKEVMDLEERTKNGVIRGQPSPLGAAVINGSQHPSSSSSVNDVSSMSTDPTLASDTDSSLEAAAGPLGCCR

> <PDB ID(s) of Target Chain>
2B1P,2R9S,3ELJ,3PZE,3VUH,4AWI,4L7F,4QTD,4UX9,5LW1,6F5E

> <UniProt (SwissProt) Recommended Name of Target Chain>
Mitogen-activated protein kinase 8

> <UniProt (SwissProt) Entry Name of Target Chain>
MK08_HUMAN

> <UniProt (SwissProt) Primary ID of Target Chain>
P45983

> <UniProt (SwissProt) Secondary ID(s) of Target Chain>
B5BTZ5 B7ZLV4 D3DX88 D3DX92 Q15709 Q15712 Q15713 Q308M2

> <UniProt (SwissProt) Alternative ID(s) of Target Chain>


> <UniProt (TrEMBL) Submitted Name of Target Chain>


> <UniProt (TrEMBL) Entry Name of Target Chain>


> <UniProt (TrEMBL) Primary ID of Target Chain>


> <UniProt (TrEMBL) Secondary ID(s) of Target Chain>


> <UniProt (TrEMBL) Alternative ID(s) of Target Chain>


$$$$

  Mrv0541 11231414432D          

 17 19  0  0  0  0            999 V2000
   11.5568   -9.5021    0.0000 C   0  0  0  0  0  0  0  0  0  0  0  0
   11.5556  -10.3285    0.0000 C   0  0  0  0  0  0  0  0  0  0  0  0
   12.2697  -10.7410    0.0000 C   0  0  0  0  0  0  0  0  0  0  0  0
   12.2679   -9.0898    0.0000 C   0  0  0  0  0  0  0  0  0  0  0  0
   12.9824   -9.4984    0.0000 C   0  0  0  0  0  0  0  0  0  0  0  0
   12.9873  -10.3286    0.0000 C   0  0  0  0  0  0  0  0  0  0  0  0
   13.7784  -10.5805    0.0000 N   0  0  0  0  0  0  0  0  0  0  0  0
   14.2624   -9.9060    0.0000 N   0  0  0  0  0  0  0  0  0  0  0  0
   13.7705   -9.2374    0.0000 C   0  0  0  0  0  0  0  0  0  0  0  0
   14.1762   -8.5199    0.0000 N   0  0  0  0  0  0  0  0  0  0  0  0
   10.8436  -10.7403    0.0000 C   0  0  0  0  0  0  0  0  0  0  0  0
   10.1298  -10.3260    0.0000 C   0  0  0  0  0  0  0  0  0  0  0  0
    9.4163  -10.7368    0.0000 C   0  0  0  0  0  0  0  0  0  0  0  0
    9.4152  -11.5618    0.0000 N   0  0  0  0  0  0  0  0  0  0  0  0
   10.1336  -11.9742    0.0000 C   0  0  0  0  0  0  0  0  0  0  0  0
   10.8443  -11.5611    0.0000 N   0  0  0  0  0  0  0  0  0  0  0  0
   10.1358  -12.7983    0.0000 N   0  0  0  0  0  0  0  0  0  0  0  0
  7  8  1  0  0  0  0
  8  9  2  0  0  0  0
  9  5  1  0  0  0  0
  4  1  1  0  0  0  0
  9 10  1  0  0  0  0
  5  6  1  0  0  0  0
 11 12  2  0  0  0  0
  2  3  1  0  0  0  0
 12 13  1  0  0  0  0
  3  6  2  0  0  0  0
 13 14  2  0  0  0  0
  1  2  2  0  0  0  0
 14 15  1  0  0  0  0
  5  4  2  0  0  0  0
 15 16  2  0  0  0  0
 16 11  1  0  0  0  0
  2 11  1  0  0  0  0
  6  7  1  0  0  0  0
 15 17  1  0  0  0  0
M  END
> <From>
www.bindingDB.org

> <BindingDB Reactant_set_id>
50628024

> <Ligand InChI>
InChI=1S/C11H10N6/c12-10-7-2-1-6(5-9(7)16-17-10)8-3-4-14-11(13)15-8/h1-5H,(H3,12,16,17)(H2,13,14,15)

> <Ligand InChI Key>
QVWIVWPIJUYRRF-UHFFFAOYSA-N

> <BindingDB MonomerID>
50339006

> <BindingDB Ligand Name>
6-(2-Amino-4-pyrimidinyl)-1H-indazol-3-amine::6-(2-aminopyrimidin-4-yl)-1H-indazol-3-amine::CHEMBL1688215

> <Target Name>
Insulin-like growth factor 1 receptor

> <Target Source Organism According to Curator or DataSource>
Homo sapiens

> <Ki (nM)>


> <IC50 (nM)>
>10000

> <Kd (nM)>


> <EC50 (nM)>


> <kon (M-1-s-1)>


> <koff (s-1)>


> <pH>


> <Temp C>


> <Curation/DataSource>
ChEMBL

> <Article DOI>
10.1021/ml100136n

> <BindingDB Entry DOI>
10.7270/Q22807WJ

> <PMID>
24900229

> <PubChem AID>


> <Patent Number>


> <Authors>
Medina, JR; Blackledge, CW; Heerding, DA; Campobasso, N; Ward, P; Briand, J; Wright, L; Axten, JM.

> <Date of publication>
12/28/2010

> <Date in BindingDB>
8/24/2011

> <Institution>
TBA

> <Link to Ligand in BindingDB>
http://www.bindingdb.org/bind/chemsearch/marvin/MolStructure.jsp?monomerid=50339006

> <Link to Ligand-Target Pair in BindingDB>
http://www.bindingdb.org/jsp/dbsearch/PrimarySearch_ki.jsp?energyterm=kJ/mole&tag=pol&polymerid=4953&target=Insulin-like+growth+factor+1+receptor&column=ki&startPg=0&Increment=50&submit=Search

> <Link to Ligand-Target Pair in BindingDB>
http://www.bindingdb.org/jsp/dbsearch/PrimarySearch_ki.jsp?energyterm=kJ/mole&tag=r21&monomerid=50339006&enzyme=Insulin-like+growth+factor+1+receptor&column=ki&startPg=0&Increment=50&submit=Search

> <Ligand HET ID in PDB>
JMZ

> <PDB ID(s) for Ligand-Target Complex>
3NUN

> <PubChem CID of Ligand>
46215814

> <PubChem SID of Ligand>
125089108

> <ChEBI ID of Ligand>


> <ChEMBL ID of Ligand>
CHEMBL1688215

> <DrugBank ID of Ligand>


> <IUPHAR_GRAC ID of Ligand>


> <KEGG ID of Ligand>


> <ZINC ID of Ligand>
ZINC66123699

> <Number of Protein Chains in Target (bigger than 1 implies a multichain complex)>
1

> <BindingDB Target Chain Sequence>
MKSGSGGGSPTSLWGLLFLSAALSLWPTSGEICGPGIDIRNDYQQLKRLENCTVIEGYLHILLISKAEDYRSYRFPKLTVITEYLLLFRVAGLESLGDLFPNLTVIRGWKLFYNYALVIFEMTNLKDIGLYNLRNITRGAIRIEKNADLCYLSTVDWSLILDAVSNNYIVGNKPPKECGDLCPGTMEEKPMCEKTTINNEYNYRCWTTNRCQKMCPSTCGKRACTENNECCHPECLGSCSAPDNDTACVACRHYYYAGVCVPACPPNTYRFEGWRCVDRDFCANILSAESSDSEGFVIHDGECMQECPSGFIRNGSQSMYCIPCEGPCPKVCEEEKKTKTIDSVTSAQMLQGCTIFKGNLLINIRRGNNIASELENFMGLIEVVTGYVKIRHSHALVSLSFLKNLRLILGEEQLEGNYSFYVLDNQNLQQLWDWDHRNLTIKAGKMYFAFNPKLCVSEIYRMEEVTGTKGRQSKGDINTRNNGERASCESDVLHFTSTTTSKNRIIITWHRYRPPDYRDLISFTVYYKEAPFKNVTEYDGQDACGSNSWNMVDVDLPPNKDVEPGILLHGLKPWTQYAVYVKAVTLTMVENDHIRGAKSEILYIRTNASVPSIPLDVLSASNSSSQLIVKWNPPSLPNGNLSYYIVRWQRQPQDGYLYRHNYCSKDKIPIRKYADGTIDIEEVTENPKTEVCGGEKGPCCACPKTEAEKQAEKEEAEYRKVFENFLHNSIFVPRPERKRRDVMQVANTTMSSRSRNTTAADTYNITDPEELETEYPFFESRVDNKERTVISNLRPFTLYRIDIHSCNHEAEKLGCSASNFVFARTMPAEGADDIPGPVTWEPRPENSIFLKWPEPENPNGLILMYEIKYGSQVEDQRECVSRQEYRKYGGAKLNRLNPGNYTARIQATSLSGNGSWTDPVFFYVQAKTGYENFIHLIIALPVAVLLIVGGLVIMLYVFHRKRNNSRLGNGVLYASVNPEYFSAADVYVPDEWEVAREKITMSRELGQGSFGMVYEGVAKGVVKDEPETRVAIKTVNEAASMRERIEFLNEASVMKEFNCHHVVRLLGVVSQGQPTLVIMELMTRGDLKSYLRSLRPEMENNPVLAPPSLSKMIQMAGEIADGMAYLNANKFVHRDLAARNCMVAEDFTVKIGDFGMTRDIYETDYYRKGGKGLLPVRWMSPESLKDGVFTTYSDVWSFGVVLWEIATLAEQPYQGLSNEQVLRFVMEGGLLDKPDNCPDMLFELMRMCWQYNPKMRPSFLEIISSIKEEMEPGFREVSFYYSEENKLPEPEELDLEPENMESVPLDPSASSSSLPLPDRHSGHKAENGPGPGVLVLRASFDERQPYAHMNGGRKNERALPLPQSSTC

> <PDB ID(s) of Target Chain>
1IGR,1JQH,1M7N,2OJ9,2ZM3,3F5P,3LVP,3NW5,3NW6,3NW7,3QQU,4D2R,5FXQ,5FXR,6JK8,7V3P,7XGD,7XLC,7YRR

> <UniProt (SwissProt) Recommended Name of Target Chain>
Insulin-like growth factor 1 receptor

> <UniProt (SwissProt) Entry Name of Target Chain>
IGF1R_HUMAN

> <UniProt (SwissProt) Primary ID of Target Chain>
P08069

> <UniProt (SwissProt) Secondary ID(s) of Target Chain>
B1B5Y2 Q14CV2 Q9UCC0

> <UniProt (SwissProt) Alternative ID(s) of Target Chain>


> <UniProt (TrEMBL) Submitted Name of Target Chain>


> <UniProt (TrEMBL) Entry Name of Target Chain>


> <UniProt (TrEMBL) Primary ID of Target Chain>


> <UniProt (TrEMBL) Secondary ID(s) of Target Chain>


> <UniProt (TrEMBL) Alternative ID(s) of Target Chain>


$$$$

  Mrv0541 11231414432D          

 17 19  0  0  0  0            999 V2000
   11.5568   -9.5021    0.0000 C   0  0  0  0  0  0  0  0  0  0  0  0
   11.5556  -10.3285    0.0000 C   0  0  0  0  0  0  0  0  0  0  0  0
   12.2697  -10.7410    0.0000 C   0  0  0  0  0  0  0  0  0  0  0  0
   12.2679   -9.0898    0.0000 C   0  0  0  0  0  0  0  0  0  0  0  0
   12.9824   -9.4984    0.0000 C   0  0  0  0  0  0  0  0  0  0  0  0
   12.9873  -10.3286    0.0000 C   0  0  0  0  0  0  0  0  0  0  0  0
   13.7784  -10.5805    0.0000 N   0  0  0  0  0  0  0  0  0  0  0  0
   14.2624   -9.9060    0.0000 N   0  0  0  0  0  0  0  0  0  0  0  0
   13.7705   -9.2374    0.0000 C   0  0  0  0  0  0  0  0  0  0  0  0
   14.1762   -8.5199    0.0000 N   0  0  0  0  0  0  0  0  0  0  0  0
   10.8436  -10.7403    0.0000 C   0  0  0  0  0  0  0  0  0  0  0  0
   10.1298  -10.3260    0.0000 C   0  0  0  0  0  0  0  0  0  0  0  0
    9.4163  -10.7368    0.0000 C   0  0  0  0  0  0  0  0  0  0  0  0
    9.4152  -11.5618    0.0000 N   0  0  0  0  0  0  0  0  0  0  0  0
   10.1336  -11.9742    0.0000 C   0  0  0  0  0  0  0  0  0  0  0  0
   10.8443  -11.5611    0.0000 N   0  0  0  0  0  0  0  0  0  0  0  0
   10.1358  -12.7983    0.0000 N   0  0  0  0  0  0  0  0  0  0  0  0
  7  8  1  0  0  0  0
  8  9  2  0  0  0  0
  9  5  1  0  0  0  0
  4  1  1  0  0  0  0
  9 10  1  0  0  0  0
  5  6  1  0  0  0  0
 11 12  2  0  0  0  0
  2  3  1  0  0  0  0
 12 13  1  0  0  0  0
  3  6  2  0  0  0  0
 13 14  2  0  0  0  0
  1  2  2  0  0  0  0
 14 15  1  0  0  0  0
  5  4  2  0  0  0  0
 15 16  2  0  0  0  0
 16 11  1  0  0  0  0
  2 11  1  0  0  0  0
  6  7  1  0  0  0  0
 15 17  1  0  0  0  0
M  END
> <From>
www.bindingDB.org

> <BindingDB Reactant_set_id>
50628022

> <Ligand InChI>
InChI=1S/C11H10N6/c12-10-7-2-1-6(5-9(7)16-17-10)8-3-4-14-11(13)15-8/h1-5H,(H3,12,16,17)(H2,13,14,15)

> <Ligand InChI Key>
QVWIVWPIJUYRRF-UHFFFAOYSA-N

> <BindingDB MonomerID>
50339006

> <BindingDB Ligand Name>
6-(2-Amino-4-pyrimidinyl)-1H-indazol-3-amine::6-(2-aminopyrimidin-4-yl)-1H-indazol-3-amine::CHEMBL1688215

> <Target Name>
RAC-alpha serine/threonine-protein kinase

> <Target Source Organism According to Curator or DataSource>
Human

> <Ki (nM)>


> <IC50 (nM)>
>10000

> <Kd (nM)>


> <EC50 (nM)>


> <kon (M-1-s-1)>


> <koff (s-1)>


> <pH>


> <Temp C>


> <Curation/DataSource>
ChEMBL

> <Article DOI>
10.1021/ml100136n

> <BindingDB Entry DOI>
10.7270/Q22807WJ

> <PMID>
24900229

> <PubChem AID>


> <Patent Number>


> <Authors>
Medina, JR; Blackledge, CW; Heerding, DA; Campobasso, N; Ward, P; Briand, J; Wright, L; Axten, JM.

> <Date of publication>
12/28/2010

> <Date in BindingDB>
8/24/2011

> <Institution>
TBA

> <Link to Ligand in BindingDB>
http://www.bindingdb.org/bind/chemsearch/marvin/MolStructure.jsp?monomerid=50339006

> <Link to Ligand-Target Pair in BindingDB>
http://www.bindingdb.org/jsp/dbsearch/PrimarySearch_ki.jsp?energyterm=kJ/mole&tag=pol&polymerid=513&target=RAC-alpha+serine%2Fthreonine-protein+kinase&column=ki&startPg=0&Increment=50&submit=Search

> <Link to Ligand-Target Pair in BindingDB>
http://www.bindingdb.org/jsp/dbsearch/PrimarySearch_ki.jsp?energyterm=kJ/mole&tag=r21&monomerid=50339006&enzyme=RAC-alpha+serine%2Fthreonine-protein+kinase&column=ki&startPg=0&Increment=50&submit=Search

> <Ligand HET ID in PDB>
JMZ

> <PDB ID(s) for Ligand-Target Complex>
3NUN

> <PubChem CID of Ligand>
46215814

> <PubChem SID of Ligand>
125089108

> <ChEBI ID of Ligand>


> <ChEMBL ID of Ligand>
CHEMBL1688215

> <DrugBank ID of Ligand>


> <IUPHAR_GRAC ID of Ligand>


> <KEGG ID of Ligand>


> <ZINC ID of Ligand>
ZINC66123699

> <Number of Protein Chains in Target (bigger than 1 implies a multichain complex)>
1

> <BindingDB Target Chain Sequence>
MSDVAIVKEGWLHKRGEYIKTWRPRYFLLKNDGTFIGYKERPQDVDQREAPLNNFSVAQCQLMKTERPRPNTFIIRCLQWTTVIERTFHVETPEEREEWTTAIQTVADGLKKQEEEEMDFRSGSPSDNSGAEEMEVSLAKPKHRVTMNEFEYLKLLGKGTFGKVILVKEKATGRYYAMKILKKEVIVAKDEVAHTLTENRVLQNSRHPFLTALKYSFQTHDRLCFVMEYANGGELFFHLSRERVFSEDRARFYGAEIVSALDYLHSEKNVVYRDLKLENLMLDKDGHIKITDFGLCKEGIKDGATMKTFCGTPEYLAPEVLEDNDYGRAVDWWGLGVVMYEMMCGRLPFYNQDHEKLFELILMEEIRFPRTLGPEAKSLLSGLLKKDPKQRLGGGSEDAKEIMQHRFFAGIVWQHVYEKKLSPPFKPQVTSETDTRYFDEEFTAQMITITPPDQDDSMECVDSERRPHFPQFSYSASGTA

> <PDB ID(s) of Target Chain>
1H10,1UNP,1UNQ,1UNR,2UVM,3O96,6BUU,6CCY,6NPZ

> <UniProt (SwissProt) Recommended Name of Target Chain>
RAC-alpha serine/threonine-protein kinase

> <UniProt (SwissProt) Entry Name of Target Chain>
AKT1_HUMAN

> <UniProt (SwissProt) Primary ID of Target Chain>
P31749

> <UniProt (SwissProt) Secondary ID(s) of Target Chain>
B2RAM5 B7Z5R1 Q9BWB6

> <UniProt (SwissProt) Alternative ID(s) of Target Chain>


> <UniProt (TrEMBL) Submitted Name of Target Chain>


> <UniProt (TrEMBL) Entry Name of Target Chain>


> <UniProt (TrEMBL) Primary ID of Target Chain>


> <UniProt (TrEMBL) Secondary ID(s) of Target Chain>


> <UniProt (TrEMBL) Alternative ID(s) of Target Chain>


$$$$

  Mrv0541 11231414432D          

 16 18  0  0  0  0            999 V2000
   21.1730  -14.1495    0.0000 C   0  0  0  0  0  0  0  0  0  0  0  0
   21.1718  -14.9764    0.0000 C   0  0  0  0  0  0  0  0  0  0  0  0
   21.8862  -15.3890    0.0000 C   0  0  0  0  0  0  0  0  0  0  0  0
   21.8844  -13.7370    0.0000 C   0  0  0  0  0  0  0  0  0  0  0  0
   22.5993  -14.1459    0.0000 C   0  0  0  0  0  0  0  0  0  0  0  0
   22.6042  -14.9764    0.0000 C   0  0  0  0  0  0  0  0  0  0  0  0
   23.3957  -15.2285    0.0000 N   0  0  0  0  0  0  0  0  0  0  0  0
   23.8798  -14.5537    0.0000 N   0  0  0  0  0  0  0  0  0  0  0  0
   23.3878  -13.8847    0.0000 C   0  0  0  0  0  0  0  0  0  0  0  0
   23.7936  -13.1669    0.0000 N   0  0  0  0  0  0  0  0  0  0  0  0
   20.4593  -15.3884    0.0000 C   0  0  0  0  0  0  0  0  0  0  0  0
   19.7454  -14.9738    0.0000 C   0  0  0  0  0  0  0  0  0  0  0  0
   19.0316  -15.3848    0.0000 C   0  0  0  0  0  0  0  0  0  0  0  0
   19.0305  -16.2102    0.0000 N   0  0  0  0  0  0  0  0  0  0  0  0
   19.7492  -16.6228    0.0000 C   0  0  0  0  0  0  0  0  0  0  0  0
   20.4600  -16.2095    0.0000 C   0  0  0  0  0  0  0  0  0  0  0  0
  6  7  1  0  0  0  0
  7  8  1  0  0  0  0
  8  9  2  0  0  0  0
  9  5  1  0  0  0  0
  4  1  1  0  0  0  0
  9 10  1  0  0  0  0
  5  6  1  0  0  0  0
 11 12  2  0  0  0  0
  2  3  1  0  0  0  0
 12 13  1  0  0  0  0
  3  6  2  0  0  0  0
 13 14  2  0  0  0  0
  1  2  2  0  0  0  0
 14 15  1  0  0  0  0
  5  4  2  0  0  0  0
 15 16  2  0  0  0  0
 16 11  1  0  0  0  0
  2 11  1  0  0  0  0
M  END
> <From>
www.bindingDB.org

> <BindingDB Reactant_set_id>
50628053

> <Ligand InChI>
InChI=1S/C12H10N4/c13-12-10-2-1-9(7-11(10)15-16-12)8-3-5-14-6-4-8/h1-7H,(H3,13,15,16)

> <Ligand InChI Key>
DLWFCOBHENOYCJ-UHFFFAOYSA-N

> <BindingDB MonomerID>
50339028

> <BindingDB Ligand Name>
6-(4-Pyridinyl)-1H-indazol-3-amine hydrochloride::CHEMBL1688221

> <Target Name>
3-phosphoinositide-dependent protein kinase 1

> <Target Source Organism According to Curator or DataSource>
Homo sapiens

> <Ki (nM)>


> <IC50 (nM)>
 13200

> <Kd (nM)>


> <EC50 (nM)>


> <kon (M-1-s-1)>


> <koff (s-1)>


> <pH>


> <Temp C>


> <Curation/DataSource>
ChEMBL

> <Article DOI>
10.1021/ml100136n

> <BindingDB Entry DOI>
10.7270/Q22807WJ

> <PMID>
24900229

> <PubChem AID>


> <Patent Number>


> <Authors>
Medina, JR; Blackledge, CW; Heerding, DA; Campobasso, N; Ward, P; Briand, J; Wright, L; Axten, JM.

> <Date of publication>
12/28/2010

> <Date in BindingDB>
8/24/2011

> <Institution>
TBA

> <Link to Ligand in BindingDB>
http://www.bindingdb.org/bind/chemsearch/marvin/MolStructure.jsp?monomerid=50339028

> <Link to Ligand-Target Pair in BindingDB>
http://www.bindingdb.org/jsp/dbsearch/PrimarySearch_ki.jsp?energyterm=kJ/mole&tag=pol&polymerid=1744&target=3-phosphoinositide-dependent+protein+kinase+1&column=ki&startPg=0&Increment=50&submit=Search

> <Link to Ligand-Target Pair in BindingDB>
http://www.bindingdb.org/jsp/dbsearch/PrimarySearch_ki.jsp?energyterm=kJ/mole&tag=r21&monomerid=50339028&enzyme=3-phosphoinositide-dependent+protein+kinase+1&column=ki&startPg=0&Increment=50&submit=Search

> <Ligand HET ID in PDB>


> <PDB ID(s) for Ligand-Target Complex>


> <PubChem CID of Ligand>
22319690

> <PubChem SID of Ligand>
125089130

> <ChEBI ID of Ligand>


> <ChEMBL ID of Ligand>
CHEMBL1688221

> <DrugBank ID of Ligand>


> <IUPHAR_GRAC ID of Ligand>


> <KEGG ID of Ligand>


> <ZINC ID of Ligand>
ZINC66112153

> <Number of Protein Chains in Target (bigger than 1 implies a multichain complex)>
1

> <BindingDB Target Chain Sequence>
MARTTSQLYDAVPIQSSVVLCSCPSPSMVRTQTESSTPPGIPGGSRQGPAMDGTAAEPRPGAGSLQHAQPPPQPRKKRPEDFKFGKILGEGSFSTVVLARELATSREYAIKILEKRHIIKENKVPYVTRERDVMSRLDHPFFVKLYFTFQDDEKLYFGLSYAKNGELLKYIRKIGSFDETCTRFYTAEIVSALEYLHGKGIIHRDLKPENILLNEDMHIQITDFGTAKVLSPESKQARANSFVGTAQYVSPELLTEKSACKSSDLWALGCIIYQLVAGLPPFRAGNEYLIFQKIIKLEYDFPEKFFPKARDLVEKLLVLDATKRLGCEEMEGYGPLKAHPFFESVTWENLHQQTPPKLTAYLPAMSEDDEDCYGNYDNLLSQFGCMQVSSSSSSHSLSASDTGLPQRSGSNIEQYIHDLDSNSFELDLQFSEDEKRLLLEKQAGGNPWHQFVENNLILKMGPVDKRKGLFARRRQLLLTEGPHLYYVDPVNKVLKGEIPWSQELRPEAKNFKTFFVHTPNRTYYLMDPSGNAHKWCRKIQEVWRQRYQSHPDAAVQ

> <PDB ID(s) of Target Chain>
1H1W,1OKY,1OKZ,1UU3,1UU7,1UU8,1UU9,1UVR,1W1D,1W1G,1W1H,1Z5M,2PE0,2PE1,2PE2,2R7B,2XCH,3ION,3IOP,3NAX,3NAY,3NUN,3NUS,3NUU,3NUY,3QCQ,3QCS,3QCX,3QCY,3QD0,3QD3,3QD4,3RWP,3RWQ,3SC1,5HKM,5HNG,5HO7,5HO8

> <UniProt (SwissProt) Recommended Name of Target Chain>
3-phosphoinositide-dependent protein kinase 1

> <UniProt (SwissProt) Entry Name of Target Chain>
PDPK1_HUMAN

> <UniProt (SwissProt) Primary ID of Target Chain>
O15530

> <UniProt (SwissProt) Secondary ID(s) of Target Chain>
H0Y4Z0 Q59EH6 Q6FI20 Q8IV52 Q9BRD5

> <UniProt (SwissProt) Alternative ID(s) of Target Chain>


> <UniProt (TrEMBL) Submitted Name of Target Chain>


> <UniProt (TrEMBL) Entry Name of Target Chain>


> <UniProt (TrEMBL) Primary ID of Target Chain>


> <UniProt (TrEMBL) Secondary ID(s) of Target Chain>


> <UniProt (TrEMBL) Alternative ID(s) of Target Chain>


$$$$

  Mrv0541 11231414432D          

 17 19  0  0  0  0            999 V2000
    2.8663  -14.5174    0.0000 C   0  0  0  0  0  0  0  0  0  0  0  0
    2.8651  -15.3439    0.0000 C   0  0  0  0  0  0  0  0  0  0  0  0
    3.5792  -15.7563    0.0000 C   0  0  0  0  0  0  0  0  0  0  0  0
    3.5774  -14.1051    0.0000 C   0  0  0  0  0  0  0  0  0  0  0  0
    4.2919  -14.5139    0.0000 C   0  0  0  0  0  0  0  0  0  0  0  0
    4.2968  -15.3439    0.0000 C   0  0  0  0  0  0  0  0  0  0  0  0
    5.0878  -15.5959    0.0000 N   0  0  0  0  0  0  0  0  0  0  0  0
    5.5719  -14.9214    0.0000 N   0  0  0  0  0  0  0  0  0  0  0  0
    5.0800  -14.2527    0.0000 C   0  0  0  0  0  0  0  0  0  0  0  0
    5.4857  -13.5352    0.0000 N   0  0  0  0  0  0  0  0  0  0  0  0
    2.1530  -15.7557    0.0000 C   0  0  0  0  0  0  0  0  0  0  0  0
    1.4393  -15.3414    0.0000 C   0  0  0  0  0  0  0  0  0  0  0  0
    0.7258  -15.7521    0.0000 C   0  0  0  0  0  0  0  0  0  0  0  0
    0.7247  -16.5771    0.0000 C   0  0  0  0  0  0  0  0  0  0  0  0
    1.4431  -16.9896    0.0000 C   0  0  0  0  0  0  0  0  0  0  0  0
    2.1537  -16.5764    0.0000 N   0  0  0  0  0  0  0  0  0  0  0  0
    1.4453  -17.8137    0.0000 N   0  0  0  0  0  0  0  0  0  0  0  0
  7  8  1  0  0  0  0
  8  9  2  0  0  0  0
  9  5  1  0  0  0  0
  4  1  1  0  0  0  0
  9 10  1  0  0  0  0
  5  6  1  0  0  0  0
 11 12  2  0  0  0  0
  2  3  1  0  0  0  0
 12 13  1  0  0  0  0
  3  6  2  0  0  0  0
 13 14  2  0  0  0  0
  1  2  2  0  0  0  0
 14 15  1  0  0  0  0
  5  4  2  0  0  0  0
 15 16  2  0  0  0  0
 16 11  1  0  0  0  0
  2 11  1  0  0  0  0
  6  7  1  0  0  0  0
 15 17  1  0  0  0  0
M  END
> <From>
www.bindingDB.org

> <BindingDB Reactant_set_id>
50628050

> <Ligand InChI>
InChI=1S/C12H11N5/c13-11-3-1-2-9(15-11)7-4-5-8-10(6-7)16-17-12(8)14/h1-6H,(H2,13,15)(H3,14,16,17)

> <Ligand InChI Key>
RAQJQSOFLNFNRA-UHFFFAOYSA-N

> <BindingDB MonomerID>
50339025

> <BindingDB Ligand Name>
6-(6-Amino-2-pyridinyl)-1H-indazol-3-amine::CHEMBL1688218

> <Target Name>
3-phosphoinositide-dependent protein kinase 1

> <Target Source Organism According to Curator or DataSource>
Homo sapiens

> <Ki (nM)>


> <IC50 (nM)>
 13600

> <Kd (nM)>


> <EC50 (nM)>


> <kon (M-1-s-1)>


> <koff (s-1)>


> <pH>


> <Temp C>


> <Curation/DataSource>
ChEMBL

> <Article DOI>
10.1021/ml100136n

> <BindingDB Entry DOI>
10.7270/Q22807WJ

> <PMID>
24900229

> <PubChem AID>


> <Patent Number>


> <Authors>
Medina, JR; Blackledge, CW; Heerding, DA; Campobasso, N; Ward, P; Briand, J; Wright, L; Axten, JM.

> <Date of publication>
12/28/2010

> <Date in BindingDB>
8/24/2011

> <Institution>
TBA

> <Link to Ligand in BindingDB>
http://www.bindingdb.org/bind/chemsearch/marvin/MolStructure.jsp?monomerid=50339025

> <Link to Ligand-Target Pair in BindingDB>
http://www.bindingdb.org/jsp/dbsearch/PrimarySearch_ki.jsp?energyterm=kJ/mole&tag=pol&polymerid=1744&target=3-phosphoinositide-dependent+protein+kinase+1&column=ki&startPg=0&Increment=50&submit=Search

> <Link to Ligand-Target Pair in BindingDB>
http://www.bindingdb.org/jsp/dbsearch/PrimarySearch_ki.jsp?energyterm=kJ/mole&tag=r21&monomerid=50339025&enzyme=3-phosphoinositide-dependent+protein+kinase+1&column=ki&startPg=0&Increment=50&submit=Search

> <Ligand HET ID in PDB>


> <PDB ID(s) for Ligand-Target Complex>


> <PubChem CID of Ligand>
53317178

> <PubChem SID of Ligand>
125089127

> <ChEBI ID of Ligand>


> <ChEMBL ID of Ligand>
CHEMBL1688218

> <DrugBank ID of Ligand>


> <IUPHAR_GRAC ID of Ligand>


> <KEGG ID of Ligand>


> <ZINC ID of Ligand>
ZINC66128527

> <Number of Protein Chains in Target (bigger than 1 implies a multichain complex)>
1

> <BindingDB Target Chain Sequence>
MARTTSQLYDAVPIQSSVVLCSCPSPSMVRTQTESSTPPGIPGGSRQGPAMDGTAAEPRPGAGSLQHAQPPPQPRKKRPEDFKFGKILGEGSFSTVVLARELATSREYAIKILEKRHIIKENKVPYVTRERDVMSRLDHPFFVKLYFTFQDDEKLYFGLSYAKNGELLKYIRKIGSFDETCTRFYTAEIVSALEYLHGKGIIHRDLKPENILLNEDMHIQITDFGTAKVLSPESKQARANSFVGTAQYVSPELLTEKSACKSSDLWALGCIIYQLVAGLPPFRAGNEYLIFQKIIKLEYDFPEKFFPKARDLVEKLLVLDATKRLGCEEMEGYGPLKAHPFFESVTWENLHQQTPPKLTAYLPAMSEDDEDCYGNYDNLLSQFGCMQVSSSSSSHSLSASDTGLPQRSGSNIEQYIHDLDSNSFELDLQFSEDEKRLLLEKQAGGNPWHQFVENNLILKMGPVDKRKGLFARRRQLLLTEGPHLYYVDPVNKVLKGEIPWSQELRPEAKNFKTFFVHTPNRTYYLMDPSGNAHKWCRKIQEVWRQRYQSHPDAAVQ

> <PDB ID(s) of Target Chain>
1H1W,1OKY,1OKZ,1UU3,1UU7,1UU8,1UU9,1UVR,1W1D,1W1G,1W1H,1Z5M,2PE0,2PE1,2PE2,2R7B,2XCH,3ION,3IOP,3NAX,3NAY,3NUN,3NUS,3NUU,3NUY,3QCQ,3QCS,3QCX,3QCY,3QD0,3QD3,3QD4,3RWP,3RWQ,3SC1,5HKM,5HNG,5HO7,5HO8

> <UniProt (SwissProt) Recommended Name of Target Chain>
3-phosphoinositide-dependent protein kinase 1

> <UniProt (SwissProt) Entry Name of Target Chain>
PDPK1_HUMAN

> <UniProt (SwissProt) Primary ID of Target Chain>
O15530

> <UniProt (SwissProt) Secondary ID(s) of Target Chain>
H0Y4Z0 Q59EH6 Q6FI20 Q8IV52 Q9BRD5

> <UniProt (SwissProt) Alternative ID(s) of Target Chain>


> <UniProt (TrEMBL) Submitted Name of Target Chain>


> <UniProt (TrEMBL) Entry Name of Target Chain>


> <UniProt (TrEMBL) Primary ID of Target Chain>


> <UniProt (TrEMBL) Secondary ID(s) of Target Chain>


> <UniProt (TrEMBL) Alternative ID(s) of Target Chain>


$$$$

  Mrv0541 11231414432D          

 17 19  0  0  0  0            999 V2000
    9.2260  -14.3302    0.0000 C   0  0  0  0  0  0  0  0  0  0  0  0
    9.2248  -15.1567    0.0000 C   0  0  0  0  0  0  0  0  0  0  0  0
    9.9388  -15.5690    0.0000 C   0  0  0  0  0  0  0  0  0  0  0  0
    9.9371  -13.9178    0.0000 C   0  0  0  0  0  0  0  0  0  0  0  0
   10.6517  -14.3266    0.0000 C   0  0  0  0  0  0  0  0  0  0  0  0
   10.6566  -15.1567    0.0000 C   0  0  0  0  0  0  0  0  0  0  0  0
   11.4476  -15.4086    0.0000 N   0  0  0  0  0  0  0  0  0  0  0  0
   11.9316  -14.7341    0.0000 N   0  0  0  0  0  0  0  0  0  0  0  0
   11.4397  -14.0654    0.0000 C   0  0  0  0  0  0  0  0  0  0  0  0
   11.8454  -13.3479    0.0000 N   0  0  0  0  0  0  0  0  0  0  0  0
    8.5127  -15.5684    0.0000 C   0  0  0  0  0  0  0  0  0  0  0  0
    7.7991  -15.1541    0.0000 C   0  0  0  0  0  0  0  0  0  0  0  0
    7.0856  -15.5648    0.0000 C   0  0  0  0  0  0  0  0  0  0  0  0
    7.0845  -16.3898    0.0000 C   0  0  0  0  0  0  0  0  0  0  0  0
    7.8029  -16.8023    0.0000 C   0  0  0  0  0  0  0  0  0  0  0  0
    8.5134  -16.3891    0.0000 C   0  0  0  0  0  0  0  0  0  0  0  0
    7.8051  -17.6264    0.0000 N   0  0  0  0  0  0  0  0  0  0  0  0
  7  8  1  0  0  0  0
  8  9  2  0  0  0  0
  9  5  1  0  0  0  0
  4  1  1  0  0  0  0
  9 10  1  0  0  0  0
  5  6  1  0  0  0  0
 11 12  2  0  0  0  0
  2  3  1  0  0  0  0
 12 13  1  0  0  0  0
  3  6  2  0  0  0  0
 13 14  2  0  0  0  0
  1  2  2  0  0  0  0
 14 15  1  0  0  0  0
  5  4  2  0  0  0  0
 15 16  2  0  0  0  0
 16 11  1  0  0  0  0
  2 11  1  0  0  0  0
  6  7  1  0  0  0  0
 15 17  1  0  0  0  0
M  END
> <From>
www.bindingDB.org

> <BindingDB Reactant_set_id>
50628051

> <Ligand InChI>
InChI=1S/C13H12N4/c14-10-3-1-2-8(6-10)9-4-5-11-12(7-9)16-17-13(11)15/h1-7H,14H2,(H3,15,16,17)

> <Ligand InChI Key>
UAKMDPJLEZPBAJ-UHFFFAOYSA-N

> <BindingDB MonomerID>
50339026

> <BindingDB Ligand Name>
6-(3-Aminophenyl)-1H-indazol-3-amine::CHEMBL1688219

> <Target Name>
3-phosphoinositide-dependent protein kinase 1

> <Target Source Organism According to Curator or DataSource>
Homo sapiens

> <Ki (nM)>


> <IC50 (nM)>
 21200

> <Kd (nM)>


> <EC50 (nM)>


> <kon (M-1-s-1)>


> <koff (s-1)>


> <pH>


> <Temp C>


> <Curation/DataSource>
ChEMBL

> <Article DOI>
10.1021/ml100136n

> <BindingDB Entry DOI>
10.7270/Q22807WJ

> <PMID>
24900229

> <PubChem AID>


> <Patent Number>


> <Authors>
Medina, JR; Blackledge, CW; Heerding, DA; Campobasso, N; Ward, P; Briand, J; Wright, L; Axten, JM.

> <Date of publication>
12/28/2010

> <Date in BindingDB>
8/24/2011

> <Institution>
TBA

> <Link to Ligand in BindingDB>
http://www.bindingdb.org/bind/chemsearch/marvin/MolStructure.jsp?monomerid=50339026

> <Link to Ligand-Target Pair in BindingDB>
http://www.bindingdb.org/jsp/dbsearch/PrimarySearch_ki.jsp?energyterm=kJ/mole&tag=pol&polymerid=1744&target=3-phosphoinositide-dependent+protein+kinase+1&column=ki&startPg=0&Increment=50&submit=Search

> <Link to Ligand-Target Pair in BindingDB>
http://www.bindingdb.org/jsp/dbsearch/PrimarySearch_ki.jsp?energyterm=kJ/mole&tag=r21&monomerid=50339026&enzyme=3-phosphoinositide-dependent+protein+kinase+1&column=ki&startPg=0&Increment=50&submit=Search

> <Ligand HET ID in PDB>


> <PDB ID(s) for Ligand-Target Complex>


> <PubChem CID of Ligand>
11514099

> <PubChem SID of Ligand>
125089128

> <ChEBI ID of Ligand>


> <ChEMBL ID of Ligand>
CHEMBL1688219

> <DrugBank ID of Ligand>


> <IUPHAR_GRAC ID of Ligand>


> <KEGG ID of Ligand>


> <ZINC ID of Ligand>
ZINC34604769

> <Number of Protein Chains in Target (bigger than 1 implies a multichain complex)>
1

> <BindingDB Target Chain Sequence>
MARTTSQLYDAVPIQSSVVLCSCPSPSMVRTQTESSTPPGIPGGSRQGPAMDGTAAEPRPGAGSLQHAQPPPQPRKKRPEDFKFGKILGEGSFSTVVLARELATSREYAIKILEKRHIIKENKVPYVTRERDVMSRLDHPFFVKLYFTFQDDEKLYFGLSYAKNGELLKYIRKIGSFDETCTRFYTAEIVSALEYLHGKGIIHRDLKPENILLNEDMHIQITDFGTAKVLSPESKQARANSFVGTAQYVSPELLTEKSACKSSDLWALGCIIYQLVAGLPPFRAGNEYLIFQKIIKLEYDFPEKFFPKARDLVEKLLVLDATKRLGCEEMEGYGPLKAHPFFESVTWENLHQQTPPKLTAYLPAMSEDDEDCYGNYDNLLSQFGCMQVSSSSSSHSLSASDTGLPQRSGSNIEQYIHDLDSNSFELDLQFSEDEKRLLLEKQAGGNPWHQFVENNLILKMGPVDKRKGLFARRRQLLLTEGPHLYYVDPVNKVLKGEIPWSQELRPEAKNFKTFFVHTPNRTYYLMDPSGNAHKWCRKIQEVWRQRYQSHPDAAVQ

> <PDB ID(s) of Target Chain>
1H1W,1OKY,1OKZ,1UU3,1UU7,1UU8,1UU9,1UVR,1W1D,1W1G,1W1H,1Z5M,2PE0,2PE1,2PE2,2R7B,2XCH,3ION,3IOP,3NAX,3NAY,3NUN,3NUS,3NUU,3NUY,3QCQ,3QCS,3QCX,3QCY,3QD0,3QD3,3QD4,3RWP,3RWQ,3SC1,5HKM,5HNG,5HO7,5HO8

> <UniProt (SwissProt) Recommended Name of Target Chain>
3-phosphoinositide-dependent protein kinase 1

> <UniProt (SwissProt) Entry Name of Target Chain>
PDPK1_HUMAN

> <UniProt (SwissProt) Primary ID of Target Chain>
O15530

> <UniProt (SwissProt) Secondary ID(s) of Target Chain>
H0Y4Z0 Q59EH6 Q6FI20 Q8IV52 Q9BRD5

> <UniProt (SwissProt) Alternative ID(s) of Target Chain>


> <UniProt (TrEMBL) Submitted Name of Target Chain>


> <UniProt (TrEMBL) Entry Name of Target Chain>


> <UniProt (TrEMBL) Primary ID of Target Chain>


> <UniProt (TrEMBL) Secondary ID(s) of Target Chain>


> <UniProt (TrEMBL) Alternative ID(s) of Target Chain>


$$$$

  Mrv0541 11231414432D          

 16 18  0  0  0  0            999 V2000
   14.9261  -14.2949    0.0000 C   0  0  0  0  0  0  0  0  0  0  0  0
   14.9249  -15.1212    0.0000 C   0  0  0  0  0  0  0  0  0  0  0  0
   15.6389  -15.5336    0.0000 C   0  0  0  0  0  0  0  0  0  0  0  0
   15.6371  -13.8826    0.0000 C   0  0  0  0  0  0  0  0  0  0  0  0
   16.3515  -14.2912    0.0000 C   0  0  0  0  0  0  0  0  0  0  0  0
   16.3564  -15.1213    0.0000 C   0  0  0  0  0  0  0  0  0  0  0  0
   17.1473  -15.3732    0.0000 N   0  0  0  0  0  0  0  0  0  0  0  0
   17.6313  -14.6987    0.0000 N   0  0  0  0  0  0  0  0  0  0  0  0
   17.1394  -14.0303    0.0000 C   0  0  0  0  0  0  0  0  0  0  0  0
   17.5451  -13.3128    0.0000 N   0  0  0  0  0  0  0  0  0  0  0  0
   14.2129  -15.5329    0.0000 C   0  0  0  0  0  0  0  0  0  0  0  0
   13.4993  -15.1187    0.0000 C   0  0  0  0  0  0  0  0  0  0  0  0
   12.7859  -15.5294    0.0000 C   0  0  0  0  0  0  0  0  0  0  0  0
   12.7848  -16.3543    0.0000 C   0  0  0  0  0  0  0  0  0  0  0  0
   13.5031  -16.7667    0.0000 C   0  0  0  0  0  0  0  0  0  0  0  0
   14.2136  -16.3536    0.0000 N   0  0  0  0  0  0  0  0  0  0  0  0
  6  7  1  0  0  0  0
  7  8  1  0  0  0  0
  8  9  2  0  0  0  0
  9  5  1  0  0  0  0
  4  1  1  0  0  0  0
  9 10  1  0  0  0  0
  5  6  1  0  0  0  0
 11 12  2  0  0  0  0
  2  3  1  0  0  0  0
 12 13  1  0  0  0  0
  3  6  2  0  0  0  0
 13 14  2  0  0  0  0
  1  2  2  0  0  0  0
 14 15  1  0  0  0  0
  5  4  2  0  0  0  0
 15 16  2  0  0  0  0
 16 11  1  0  0  0  0
  2 11  1  0  0  0  0
M  END
> <From>
www.bindingDB.org

> <BindingDB Reactant_set_id>
50628052

> <Ligand InChI>
InChI=1S/C12H10N4/c13-12-9-5-4-8(7-11(9)15-16-12)10-3-1-2-6-14-10/h1-7H,(H3,13,15,16)

> <Ligand InChI Key>
MPELJVOPTVGIIO-UHFFFAOYSA-N

> <BindingDB MonomerID>
50339027

> <BindingDB Ligand Name>
6-(2-Pyridinyl)-1H-indazol-3-amine::CHEMBL1688220

> <Target Name>
3-phosphoinositide-dependent protein kinase 1

> <Target Source Organism According to Curator or DataSource>
Homo sapiens

> <Ki (nM)>


> <IC50 (nM)>
>25100

> <Kd (nM)>


> <EC50 (nM)>


> <kon (M-1-s-1)>


> <koff (s-1)>


> <pH>


> <Temp C>


> <Curation/DataSource>
ChEMBL

> <Article DOI>
10.1021/ml100136n

> <BindingDB Entry DOI>
10.7270/Q22807WJ

> <PMID>
24900229

> <PubChem AID>


> <Patent Number>


> <Authors>
Medina, JR; Blackledge, CW; Heerding, DA; Campobasso, N; Ward, P; Briand, J; Wright, L; Axten, JM.

> <Date of publication>
12/28/2010

> <Date in BindingDB>
8/24/2011

> <Institution>
TBA

> <Link to Ligand in BindingDB>
http://www.bindingdb.org/bind/chemsearch/marvin/MolStructure.jsp?monomerid=50339027

> <Link to Ligand-Target Pair in BindingDB>
http://www.bindingdb.org/jsp/dbsearch/PrimarySearch_ki.jsp?energyterm=kJ/mole&tag=pol&polymerid=1744&target=3-phosphoinositide-dependent+protein+kinase+1&column=ki&startPg=0&Increment=50&submit=Search

> <Link to Ligand-Target Pair in BindingDB>
http://www.bindingdb.org/jsp/dbsearch/PrimarySearch_ki.jsp?energyterm=kJ/mole&tag=r21&monomerid=50339027&enzyme=3-phosphoinositide-dependent+protein+kinase+1&column=ki&startPg=0&Increment=50&submit=Search

> <Ligand HET ID in PDB>


> <PDB ID(s) for Ligand-Target Complex>


> <PubChem CID of Ligand>
53322416

> <PubChem SID of Ligand>
125089129

> <ChEBI ID of Ligand>


> <ChEMBL ID of Ligand>
CHEMBL1688220

> <DrugBank ID of Ligand>


> <IUPHAR_GRAC ID of Ligand>


> <KEGG ID of Ligand>


> <ZINC ID of Ligand>
ZINC66100592

> <Number of Protein Chains in Target (bigger than 1 implies a multichain complex)>
1

> <BindingDB Target Chain Sequence>
MARTTSQLYDAVPIQSSVVLCSCPSPSMVRTQTESSTPPGIPGGSRQGPAMDGTAAEPRPGAGSLQHAQPPPQPRKKRPEDFKFGKILGEGSFSTVVLARELATSREYAIKILEKRHIIKENKVPYVTRERDVMSRLDHPFFVKLYFTFQDDEKLYFGLSYAKNGELLKYIRKIGSFDETCTRFYTAEIVSALEYLHGKGIIHRDLKPENILLNEDMHIQITDFGTAKVLSPESKQARANSFVGTAQYVSPELLTEKSACKSSDLWALGCIIYQLVAGLPPFRAGNEYLIFQKIIKLEYDFPEKFFPKARDLVEKLLVLDATKRLGCEEMEGYGPLKAHPFFESVTWENLHQQTPPKLTAYLPAMSEDDEDCYGNYDNLLSQFGCMQVSSSSSSHSLSASDTGLPQRSGSNIEQYIHDLDSNSFELDLQFSEDEKRLLLEKQAGGNPWHQFVENNLILKMGPVDKRKGLFARRRQLLLTEGPHLYYVDPVNKVLKGEIPWSQELRPEAKNFKTFFVHTPNRTYYLMDPSGNAHKWCRKIQEVWRQRYQSHPDAAVQ

> <PDB ID(s) of Target Chain>
1H1W,1OKY,1OKZ,1UU3,1UU7,1UU8,1UU9,1UVR,1W1D,1W1G,1W1H,1Z5M,2PE0,2PE1,2PE2,2R7B,2XCH,3ION,3IOP,3NAX,3NAY,3NUN,3NUS,3NUU,3NUY,3QCQ,3QCS,3QCX,3QCY,3QD0,3QD3,3QD4,3RWP,3RWQ,3SC1,5HKM,5HNG,5HO7,5HO8

> <UniProt (SwissProt) Recommended Name of Target Chain>
3-phosphoinositide-dependent protein kinase 1

> <UniProt (SwissProt) Entry Name of Target Chain>
PDPK1_HUMAN

> <UniProt (SwissProt) Primary ID of Target Chain>
O15530

> <UniProt (SwissProt) Secondary ID(s) of Target Chain>
H0Y4Z0 Q59EH6 Q6FI20 Q8IV52 Q9BRD5

> <UniProt (SwissProt) Alternative ID(s) of Target Chain>


> <UniProt (TrEMBL) Submitted Name of Target Chain>


> <UniProt (TrEMBL) Entry Name of Target Chain>


> <UniProt (TrEMBL) Primary ID of Target Chain>


> <UniProt (TrEMBL) Secondary ID(s) of Target Chain>


> <UniProt (TrEMBL) Alternative ID(s) of Target Chain>


$$$$

  Mrv0541 11221402132D          

 11 12  0  0  0  0            999 V2000
    2.9642  -14.6745    0.0000 N   0  0  0  0  0  0  0  0  0  0  0  0
    2.9630  -15.5003    0.0000 C   0  0  0  0  0  0  0  0  0  0  0  0
    3.6767  -15.9125    0.0000 N   0  0  0  0  0  0  0  0  0  0  0  0
    3.6749  -14.2624    0.0000 C   0  0  0  0  0  0  0  0  0  0  0  0
    4.3890  -14.6708    0.0000 C   0  0  0  0  0  0  0  0  0  0  0  0
    4.3893  -15.5004    0.0000 C   0  0  0  0  0  0  0  0  0  0  0  0
    5.1784  -15.7566    0.0000 N   0  0  0  0  0  0  0  0  0  0  0  0
    5.6658  -15.0852    0.0000 C   0  0  0  0  0  0  0  0  0  0  0  0
    5.1779  -14.4142    0.0000 N   0  0  0  0  0  0  0  0  0  0  0  0
    3.6724  -13.4388    0.0000 N   0  0  0  0  0  0  0  0  0  0  0  0
    2.2495  -15.9116    0.0000 N   0  0  0  0  0  0  0  0  0  0  0  0
  2  3  1  0  0  0  0
  3  6  2  0  0  0  0
  1  2  2  0  0  0  0
  5  4  2  0  0  0  0
  6  7  1  0  0  0  0
  7  8  2  0  0  0  0
  8  9  1  0  0  0  0
  9  5  1  0  0  0  0
  4  1  1  0  0  0  0
  4 10  1  0  0  0  0
  5  6  1  0  0  0  0
  2 11  1  0  0  0  0
M  END
> <From>
www.bindingDB.org

> <BindingDB Reactant_set_id>
50628032

> <Ligand InChI>
InChI=1S/C5H6N6/c6-3-2-4(9-1-8-2)11-5(7)10-3/h1H,(H5,6,7,8,9,10,11)

> <Ligand InChI Key>
MSSXOMSJDRHRMC-UHFFFAOYSA-N

> <BindingDB MonomerID>
50208879

> <BindingDB Ligand Name>
2,6-diaminopurine::9H-Purine-2,6-diamine0.5M H2SO4::CHEMBL388596

> <Target Name>
3-phosphoinositide-dependent protein kinase 1

> <Target Source Organism According to Curator or DataSource>
Homo sapiens

> <Ki (nM)>


> <IC50 (nM)>
 50800

> <Kd (nM)>


> <EC50 (nM)>


> <kon (M-1-s-1)>


> <koff (s-1)>


> <pH>


> <Temp C>


> <Curation/DataSource>
ChEMBL

> <Article DOI>
10.1021/ml100136n

> <BindingDB Entry DOI>
10.7270/Q22807WJ

> <PMID>
24900229

> <PubChem AID>


> <Patent Number>


> <Authors>
Medina, JR; Blackledge, CW; Heerding, DA; Campobasso, N; Ward, P; Briand, J; Wright, L; Axten, JM.

> <Date of publication>
12/28/2010

> <Date in BindingDB>
8/24/2011

> <Institution>
TBA

> <Link to Ligand in BindingDB>
http://www.bindingdb.org/bind/chemsearch/marvin/MolStructure.jsp?monomerid=50208879

> <Link to Ligand-Target Pair in BindingDB>
http://www.bindingdb.org/jsp/dbsearch/PrimarySearch_ki.jsp?energyterm=kJ/mole&tag=pol&polymerid=1744&target=3-phosphoinositide-dependent+protein+kinase+1&column=ki&startPg=0&Increment=50&submit=Search

> <Link to Ligand-Target Pair in BindingDB>
http://www.bindingdb.org/jsp/dbsearch/PrimarySearch_ki.jsp?energyterm=kJ/mole&tag=r21&monomerid=50208879&enzyme=3-phosphoinositide-dependent+protein+kinase+1&column=ki&startPg=0&Increment=50&submit=Search

> <Ligand HET ID in PDB>


> <PDB ID(s) for Ligand-Target Complex>


> <PubChem CID of Ligand>
30976

> <PubChem SID of Ligand>
104085836

> <ChEBI ID of Ligand>
40235

> <ChEMBL ID of Ligand>
CHEMBL388596

> <DrugBank ID of Ligand>


> <IUPHAR_GRAC ID of Ligand>


> <KEGG ID of Ligand>


> <ZINC ID of Ligand>
ZINC07486121

> <Number of Protein Chains in Target (bigger than 1 implies a multichain complex)>
1

> <BindingDB Target Chain Sequence>
MARTTSQLYDAVPIQSSVVLCSCPSPSMVRTQTESSTPPGIPGGSRQGPAMDGTAAEPRPGAGSLQHAQPPPQPRKKRPEDFKFGKILGEGSFSTVVLARELATSREYAIKILEKRHIIKENKVPYVTRERDVMSRLDHPFFVKLYFTFQDDEKLYFGLSYAKNGELLKYIRKIGSFDETCTRFYTAEIVSALEYLHGKGIIHRDLKPENILLNEDMHIQITDFGTAKVLSPESKQARANSFVGTAQYVSPELLTEKSACKSSDLWALGCIIYQLVAGLPPFRAGNEYLIFQKIIKLEYDFPEKFFPKARDLVEKLLVLDATKRLGCEEMEGYGPLKAHPFFESVTWENLHQQTPPKLTAYLPAMSEDDEDCYGNYDNLLSQFGCMQVSSSSSSHSLSASDTGLPQRSGSNIEQYIHDLDSNSFELDLQFSEDEKRLLLEKQAGGNPWHQFVENNLILKMGPVDKRKGLFARRRQLLLTEGPHLYYVDPVNKVLKGEIPWSQELRPEAKNFKTFFVHTPNRTYYLMDPSGNAHKWCRKIQEVWRQRYQSHPDAAVQ

> <PDB ID(s) of Target Chain>
1H1W,1OKY,1OKZ,1UU3,1UU7,1UU8,1UU9,1UVR,1W1D,1W1G,1W1H,1Z5M,2PE0,2PE1,2PE2,2R7B,2XCH,3ION,3IOP,3NAX,3NAY,3NUN,3NUS,3NUU,3NUY,3QCQ,3QCS,3QCX,3QCY,3QD0,3QD3,3QD4,3RWP,3RWQ,3SC1,5HKM,5HNG,5HO7,5HO8

> <UniProt (SwissProt) Recommended Name of Target Chain>
3-phosphoinositide-dependent protein kinase 1

> <UniProt (SwissProt) Entry Name of Target Chain>
PDPK1_HUMAN

> <UniProt (SwissProt) Primary ID of Target Chain>
O15530

> <UniProt (SwissProt) Secondary ID(s) of Target Chain>
H0Y4Z0 Q59EH6 Q6FI20 Q8IV52 Q9BRD5

> <UniProt (SwissProt) Alternative ID(s) of Target Chain>


> <UniProt (TrEMBL) Submitted Name of Target Chain>


> <UniProt (TrEMBL) Entry Name of Target Chain>


> <UniProt (TrEMBL) Primary ID of Target Chain>


> <UniProt (TrEMBL) Secondary ID(s) of Target Chain>


> <UniProt (TrEMBL) Alternative ID(s) of Target Chain>


$$$$

  Mrv0541 11231414432D          

 11 12  0  0  0  0            999 V2000
   14.3026    0.4923    0.0000 N   0  0  0  0  0  0  0  0  0  0  0  0
   14.3014   -0.3291    0.0000 C   0  0  0  0  0  0  0  0  0  0  0  0
   15.0112   -0.7390    0.0000 N   0  0  0  0  0  0  0  0  0  0  0  0
   15.0094    0.9020    0.0000 C   0  0  0  0  0  0  0  0  0  0  0  0
   15.7195    0.4959    0.0000 C   0  0  0  0  0  0  0  0  0  0  0  0
   15.7244   -0.3291    0.0000 C   0  0  0  0  0  0  0  0  0  0  0  0
   16.5105   -0.5795    0.0000 N   0  0  0  0  0  0  0  0  0  0  0  0
   16.9916    0.0908    0.0000 N   0  0  0  0  0  0  0  0  0  0  0  0
   16.5027    0.7554    0.0000 C   0  0  0  0  0  0  0  0  0  0  0  0
   15.0069    1.7211    0.0000 N   0  0  0  0  0  0  0  0  0  0  0  0
   15.7149    2.1328    0.0000 C   0  0  0  0  0  0  0  0  0  0  0  0
  2  3  2  0  0  0  0
  3  6  1  0  0  0  0
  1  2  1  0  0  0  0
  5  4  1  0  0  0  0
  6  7  2  0  0  0  0
  7  8  1  0  0  0  0
  8  9  1  0  0  0  0
  9  5  2  0  0  0  0
  4  1  2  0  0  0  0
  4 10  1  0  0  0  0
  5  6  1  0  0  0  0
 10 11  1  0  0  0  0
M  END
> <From>
www.bindingDB.org

> <BindingDB Reactant_set_id>
50628033

> <Ligand InChI>
InChI=1S/C6H7N5/c1-7-5-4-2-10-11-6(4)9-3-8-5/h2-3H,1H3,(H2,7,8,9,10,11)

> <Ligand InChI Key>
HXXBSUPHBFYSQW-UHFFFAOYSA-N

> <BindingDB MonomerID>
50339010

> <BindingDB Ligand Name>
CHEMBL1688207::N-methyl-1H-pyrazolo[3,4-d]pyrimidin-4-amine

> <Target Name>
3-phosphoinositide-dependent protein kinase 1

> <Target Source Organism According to Curator or DataSource>
Homo sapiens

> <Ki (nM)>


> <IC50 (nM)>
 90800

> <Kd (nM)>


> <EC50 (nM)>


> <kon (M-1-s-1)>


> <koff (s-1)>


> <pH>


> <Temp C>


> <Curation/DataSource>
ChEMBL

> <Article DOI>
10.1021/ml100136n

> <BindingDB Entry DOI>
10.7270/Q22807WJ

> <PMID>
24900229

> <PubChem AID>


> <Patent Number>


> <Authors>
Medina, JR; Blackledge, CW; Heerding, DA; Campobasso, N; Ward, P; Briand, J; Wright, L; Axten, JM.

> <Date of publication>
12/28/2010

> <Date in BindingDB>
8/24/2011

> <Institution>
TBA

> <Link to Ligand in BindingDB>
http://www.bindingdb.org/bind/chemsearch/marvin/MolStructure.jsp?monomerid=50339010

> <Link to Ligand-Target Pair in BindingDB>
http://www.bindingdb.org/jsp/dbsearch/PrimarySearch_ki.jsp?energyterm=kJ/mole&tag=pol&polymerid=1744&target=3-phosphoinositide-dependent+protein+kinase+1&column=ki&startPg=0&Increment=50&submit=Search

> <Link to Ligand-Target Pair in BindingDB>
http://www.bindingdb.org/jsp/dbsearch/PrimarySearch_ki.jsp?energyterm=kJ/mole&tag=r21&monomerid=50339010&enzyme=3-phosphoinositide-dependent+protein+kinase+1&column=ki&startPg=0&Increment=50&submit=Search

> <Ligand HET ID in PDB>


> <PDB ID(s) for Ligand-Target Complex>


> <PubChem CID of Ligand>
221158

> <PubChem SID of Ligand>
125089112

> <ChEBI ID of Ligand>


> <ChEMBL ID of Ligand>
CHEMBL1688207

> <DrugBank ID of Ligand>


> <IUPHAR_GRAC ID of Ligand>


> <KEGG ID of Ligand>


> <ZINC ID of Ligand>
ZINC04353394

> <Number of Protein Chains in Target (bigger than 1 implies a multichain complex)>
1

> <BindingDB Target Chain Sequence>
MARTTSQLYDAVPIQSSVVLCSCPSPSMVRTQTESSTPPGIPGGSRQGPAMDGTAAEPRPGAGSLQHAQPPPQPRKKRPEDFKFGKILGEGSFSTVVLARELATSREYAIKILEKRHIIKENKVPYVTRERDVMSRLDHPFFVKLYFTFQDDEKLYFGLSYAKNGELLKYIRKIGSFDETCTRFYTAEIVSALEYLHGKGIIHRDLKPENILLNEDMHIQITDFGTAKVLSPESKQARANSFVGTAQYVSPELLTEKSACKSSDLWALGCIIYQLVAGLPPFRAGNEYLIFQKIIKLEYDFPEKFFPKARDLVEKLLVLDATKRLGCEEMEGYGPLKAHPFFESVTWENLHQQTPPKLTAYLPAMSEDDEDCYGNYDNLLSQFGCMQVSSSSSSHSLSASDTGLPQRSGSNIEQYIHDLDSNSFELDLQFSEDEKRLLLEKQAGGNPWHQFVENNLILKMGPVDKRKGLFARRRQLLLTEGPHLYYVDPVNKVLKGEIPWSQELRPEAKNFKTFFVHTPNRTYYLMDPSGNAHKWCRKIQEVWRQRYQSHPDAAVQ

> <PDB ID(s) of Target Chain>
1H1W,1OKY,1OKZ,1UU3,1UU7,1UU8,1UU9,1UVR,1W1D,1W1G,1W1H,1Z5M,2PE0,2PE1,2PE2,2R7B,2XCH,3ION,3IOP,3NAX,3NAY,3NUN,3NUS,3NUU,3NUY,3QCQ,3QCS,3QCX,3QCY,3QD0,3QD3,3QD4,3RWP,3RWQ,3SC1,5HKM,5HNG,5HO7,5HO8

> <UniProt (SwissProt) Recommended Name of Target Chain>
3-phosphoinositide-dependent protein kinase 1

> <UniProt (SwissProt) Entry Name of Target Chain>
PDPK1_HUMAN

> <UniProt (SwissProt) Primary ID of Target Chain>
O15530

> <UniProt (SwissProt) Secondary ID(s) of Target Chain>
H0Y4Z0 Q59EH6 Q6FI20 Q8IV52 Q9BRD5

> <UniProt (SwissProt) Alternative ID(s) of Target Chain>


> <UniProt (TrEMBL) Submitted Name of Target Chain>


> <UniProt (TrEMBL) Entry Name of Target Chain>


> <UniProt (TrEMBL) Primary ID of Target Chain>


> <UniProt (TrEMBL) Secondary ID(s) of Target Chain>


> <UniProt (TrEMBL) Alternative ID(s) of Target Chain>


$$$$

  Mrv0541 11231414432D          

 11 12  0  0  0  0            999 V2000
   -5.0896   -3.7474    0.0000 C   0  0  0  0  0  0  0  0  0  0  0  0
   -5.0908   -4.5741    0.0000 C   0  0  0  0  0  0  0  0  0  0  0  0
   -4.3764   -4.9867    0.0000 C   0  0  0  0  0  0  0  0  0  0  0  0
   -3.6605   -4.5737    0.0000 C   0  0  0  0  0  0  0  0  0  0  0  0
   -3.6634   -3.7437    0.0000 C   0  0  0  0  0  0  0  0  0  0  0  0
   -4.3782   -3.3349    0.0000 C   0  0  0  0  0  0  0  0  0  0  0  0
   -2.9513   -3.3263    0.0000 C   0  0  0  0  0  0  0  0  0  0  0  0
   -2.1969   -3.6588    0.0000 N   0  0  0  0  0  0  0  0  0  0  0  0
   -1.6476   -3.0440    0.0000 C   0  0  0  0  0  0  0  0  0  0  0  0
   -2.0625   -2.3316    0.0000 C   0  0  0  0  0  0  0  0  0  0  0  0
   -2.8682   -2.5062    0.0000 S   0  0  0  0  0  0  0  0  0  0  0  0
  5  6  1  0  0  0  0
  6  1  2  0  0  0  0
  7  8  2  0  0  0  0
  1  2  1  0  0  0  0
  3  4  1  0  0  0  0
  4  5  2  0  0  0  0
  2  3  2  0  0  0  0
  8  9  1  0  0  0  0
  9 10  2  0  0  0  0
 10 11  1  0  0  0  0
 11  7  1  0  0  0  0
  5  7  1  0  0  0  0
M  END
> <From>
www.bindingDB.org

> <BindingDB Reactant_set_id>
50628034

> <Ligand InChI>
InChI=1S/C9H7NS/c1-2-4-8(5-3-1)9-10-6-7-11-9/h1-7H

> <Ligand InChI Key>
WYKHSBAVLOPISI-UHFFFAOYSA-N

> <BindingDB MonomerID>
50339011

> <BindingDB Ligand Name>
2-phenylthiazole::CHEMBL1688208

> <Target Name>
3-phosphoinositide-dependent protein kinase 1

> <Target Source Organism According to Curator or DataSource>
Homo sapiens

> <Ki (nM)>


> <IC50 (nM)>
 95100

> <Kd (nM)>


> <EC50 (nM)>


> <kon (M-1-s-1)>


> <koff (s-1)>


> <pH>


> <Temp C>


> <Curation/DataSource>
ChEMBL

> <Article DOI>
10.1021/ml100136n

> <BindingDB Entry DOI>
10.7270/Q22807WJ

> <PMID>
24900229

> <PubChem AID>


> <Patent Number>


> <Authors>
Medina, JR; Blackledge, CW; Heerding, DA; Campobasso, N; Ward, P; Briand, J; Wright, L; Axten, JM.

> <Date of publication>
12/28/2010

> <Date in BindingDB>
8/24/2011

> <Institution>
TBA

> <Link to Ligand in BindingDB>
http://www.bindingdb.org/bind/chemsearch/marvin/MolStructure.jsp?monomerid=50339011

> <Link to Ligand-Target Pair in BindingDB>
http://www.bindingdb.org/jsp/dbsearch/PrimarySearch_ki.jsp?energyterm=kJ/mole&tag=pol&polymerid=1744&target=3-phosphoinositide-dependent+protein+kinase+1&column=ki&startPg=0&Increment=50&submit=Search

> <Link to Ligand-Target Pair in BindingDB>
http://www.bindingdb.org/jsp/dbsearch/PrimarySearch_ki.jsp?energyterm=kJ/mole&tag=r21&monomerid=50339011&enzyme=3-phosphoinositide-dependent+protein+kinase+1&column=ki&startPg=0&Increment=50&submit=Search

> <Ligand HET ID in PDB>


> <PDB ID(s) for Ligand-Target Complex>


> <PubChem CID of Ligand>
547494

> <PubChem SID of Ligand>
125089113

> <ChEBI ID of Ligand>


> <ChEMBL ID of Ligand>
CHEMBL1688208

> <DrugBank ID of Ligand>


> <IUPHAR_GRAC ID of Ligand>


> <KEGG ID of Ligand>


> <ZINC ID of Ligand>
ZINC14983497

> <Number of Protein Chains in Target (bigger than 1 implies a multichain complex)>
1

> <BindingDB Target Chain Sequence>
MARTTSQLYDAVPIQSSVVLCSCPSPSMVRTQTESSTPPGIPGGSRQGPAMDGTAAEPRPGAGSLQHAQPPPQPRKKRPEDFKFGKILGEGSFSTVVLARELATSREYAIKILEKRHIIKENKVPYVTRERDVMSRLDHPFFVKLYFTFQDDEKLYFGLSYAKNGELLKYIRKIGSFDETCTRFYTAEIVSALEYLHGKGIIHRDLKPENILLNEDMHIQITDFGTAKVLSPESKQARANSFVGTAQYVSPELLTEKSACKSSDLWALGCIIYQLVAGLPPFRAGNEYLIFQKIIKLEYDFPEKFFPKARDLVEKLLVLDATKRLGCEEMEGYGPLKAHPFFESVTWENLHQQTPPKLTAYLPAMSEDDEDCYGNYDNLLSQFGCMQVSSSSSSHSLSASDTGLPQRSGSNIEQYIHDLDSNSFELDLQFSEDEKRLLLEKQAGGNPWHQFVENNLILKMGPVDKRKGLFARRRQLLLTEGPHLYYVDPVNKVLKGEIPWSQELRPEAKNFKTFFVHTPNRTYYLMDPSGNAHKWCRKIQEVWRQRYQSHPDAAVQ

> <PDB ID(s) of Target Chain>
1H1W,1OKY,1OKZ,1UU3,1UU7,1UU8,1UU9,1UVR,1W1D,1W1G,1W1H,1Z5M,2PE0,2PE1,2PE2,2R7B,2XCH,3ION,3IOP,3NAX,3NAY,3NUN,3NUS,3NUU,3NUY,3QCQ,3QCS,3QCX,3QCY,3QD0,3QD3,3QD4,3RWP,3RWQ,3SC1,5HKM,5HNG,5HO7,5HO8

> <UniProt (SwissProt) Recommended Name of Target Chain>
3-phosphoinositide-dependent protein kinase 1

> <UniProt (SwissProt) Entry Name of Target Chain>
PDPK1_HUMAN

> <UniProt (SwissProt) Primary ID of Target Chain>
O15530

> <UniProt (SwissProt) Secondary ID(s) of Target Chain>
H0Y4Z0 Q59EH6 Q6FI20 Q8IV52 Q9BRD5

> <UniProt (SwissProt) Alternative ID(s) of Target Chain>


> <UniProt (TrEMBL) Submitted Name of Target Chain>


> <UniProt (TrEMBL) Entry Name of Target Chain>


> <UniProt (TrEMBL) Primary ID of Target Chain>


> <UniProt (TrEMBL) Secondary ID(s) of Target Chain>


> <UniProt (TrEMBL) Alternative ID(s) of Target Chain>


$$$$

  Mrv0541 11231414432D          

 12 13  0  0  0  0            999 V2000
    0.3979   -6.2058    0.0000 C   0  0  0  0  0  0  0  0  0  0  0  0
    0.3967   -7.0318    0.0000 C   0  0  0  0  0  0  0  0  0  0  0  0
    1.1103   -7.4440    0.0000 C   0  0  0  0  0  0  0  0  0  0  0  0
    1.1085   -5.7939    0.0000 C   0  0  0  0  0  0  0  0  0  0  0  0
    1.1109   -8.2705    0.0000 C   0  0  0  0  0  0  0  0  0  0  0  0
    0.3976   -8.6820    0.0000 O   0  0  0  0  0  0  0  0  0  0  0  0
    1.8240   -8.6824    0.0000 N   0  0  0  0  0  0  0  0  0  0  0  0
    1.8226   -6.2022    0.0000 C   0  0  0  0  0  0  0  0  0  0  0  0
    1.8274   -7.0272    0.0000 C   0  0  0  0  0  0  0  0  0  0  0  0
    2.6136   -7.2777    0.0000 N   0  0  0  0  0  0  0  0  0  0  0  0
    3.0947   -6.6073    0.0000 C   0  0  0  0  0  0  0  0  0  0  0  0
    2.6058   -5.9428    0.0000 C   0  0  0  0  0  0  0  0  0  0  0  0
  3  9  2  0  0  0  0
  5  6  2  0  0  0  0
  5  7  1  0  0  0  0
  3  5  1  0  0  0  0
  8  9  1  0  0  0  0
  1  2  2  0  0  0  0
  8  4  2  0  0  0  0
  4  1  1  0  0  0  0
  2  3  1  0  0  0  0
  9 10  1  0  0  0  0
 10 11  1  0  0  0  0
 11 12  2  0  0  0  0
 12  8  1  0  0  0  0
M  END
> <From>
www.bindingDB.org

> <BindingDB Reactant_set_id>
50628040

> <Ligand InChI>
InChI=1S/C9H8N2O/c10-9(12)7-3-1-2-6-4-5-11-8(6)7/h1-5,11H,(H2,10,12)

> <Ligand InChI Key>
OXCXIABGNNQZOF-UHFFFAOYSA-N

> <BindingDB MonomerID>
50339017

> <BindingDB Ligand Name>
1H-indole-7-carboxamide::CHEMBL1688213

> <Target Name>
3-phosphoinositide-dependent protein kinase 1

> <Target Source Organism According to Curator or DataSource>
Homo sapiens

> <Ki (nM)>


> <IC50 (nM)>
 97500

> <Kd (nM)>


> <EC50 (nM)>


> <kon (M-1-s-1)>


> <koff (s-1)>


> <pH>


> <Temp C>


> <Curation/DataSource>
ChEMBL

> <Article DOI>
10.1021/ml100136n

> <BindingDB Entry DOI>
10.7270/Q22807WJ

> <PMID>
24900229

> <PubChem AID>


> <Patent Number>


> <Authors>
Medina, JR; Blackledge, CW; Heerding, DA; Campobasso, N; Ward, P; Briand, J; Wright, L; Axten, JM.

> <Date of publication>
12/28/2010

> <Date in BindingDB>
8/24/2011

> <Institution>
TBA

> <Link to Ligand in BindingDB>
http://www.bindingdb.org/bind/chemsearch/marvin/MolStructure.jsp?monomerid=50339017

> <Link to Ligand-Target Pair in BindingDB>
http://www.bindingdb.org/jsp/dbsearch/PrimarySearch_ki.jsp?energyterm=kJ/mole&tag=pol&polymerid=1744&target=3-phosphoinositide-dependent+protein+kinase+1&column=ki&startPg=0&Increment=50&submit=Search

> <Link to Ligand-Target Pair in BindingDB>
http://www.bindingdb.org/jsp/dbsearch/PrimarySearch_ki.jsp?energyterm=kJ/mole&tag=r21&monomerid=50339017&enzyme=3-phosphoinositide-dependent+protein+kinase+1&column=ki&startPg=0&Increment=50&submit=Search

> <Ligand HET ID in PDB>


> <PDB ID(s) for Ligand-Target Complex>


> <PubChem CID of Ligand>
13415516

> <PubChem SID of Ligand>
125089119

> <ChEBI ID of Ligand>


> <ChEMBL ID of Ligand>
CHEMBL1688213

> <DrugBank ID of Ligand>


> <IUPHAR_GRAC ID of Ligand>


> <KEGG ID of Ligand>


> <ZINC ID of Ligand>
ZINC39644329

> <Number of Protein Chains in Target (bigger than 1 implies a multichain complex)>
1

> <BindingDB Target Chain Sequence>
MARTTSQLYDAVPIQSSVVLCSCPSPSMVRTQTESSTPPGIPGGSRQGPAMDGTAAEPRPGAGSLQHAQPPPQPRKKRPEDFKFGKILGEGSFSTVVLARELATSREYAIKILEKRHIIKENKVPYVTRERDVMSRLDHPFFVKLYFTFQDDEKLYFGLSYAKNGELLKYIRKIGSFDETCTRFYTAEIVSALEYLHGKGIIHRDLKPENILLNEDMHIQITDFGTAKVLSPESKQARANSFVGTAQYVSPELLTEKSACKSSDLWALGCIIYQLVAGLPPFRAGNEYLIFQKIIKLEYDFPEKFFPKARDLVEKLLVLDATKRLGCEEMEGYGPLKAHPFFESVTWENLHQQTPPKLTAYLPAMSEDDEDCYGNYDNLLSQFGCMQVSSSSSSHSLSASDTGLPQRSGSNIEQYIHDLDSNSFELDLQFSEDEKRLLLEKQAGGNPWHQFVENNLILKMGPVDKRKGLFARRRQLLLTEGPHLYYVDPVNKVLKGEIPWSQELRPEAKNFKTFFVHTPNRTYYLMDPSGNAHKWCRKIQEVWRQRYQSHPDAAVQ

> <PDB ID(s) of Target Chain>
1H1W,1OKY,1OKZ,1UU3,1UU7,1UU8,1UU9,1UVR,1W1D,1W1G,1W1H,1Z5M,2PE0,2PE1,2PE2,2R7B,2XCH,3ION,3IOP,3NAX,3NAY,3NUN,3NUS,3NUU,3NUY,3QCQ,3QCS,3QCX,3QCY,3QD0,3QD3,3QD4,3RWP,3RWQ,3SC1,5HKM,5HNG,5HO7,5HO8

> <UniProt (SwissProt) Recommended Name of Target Chain>
3-phosphoinositide-dependent protein kinase 1

> <UniProt (SwissProt) Entry Name of Target Chain>
PDPK1_HUMAN

> <UniProt (SwissProt) Primary ID of Target Chain>
O15530

> <UniProt (SwissProt) Secondary ID(s) of Target Chain>
H0Y4Z0 Q59EH6 Q6FI20 Q8IV52 Q9BRD5

> <UniProt (SwissProt) Alternative ID(s) of Target Chain>


> <UniProt (TrEMBL) Submitted Name of Target Chain>


> <UniProt (TrEMBL) Entry Name of Target Chain>


> <UniProt (TrEMBL) Primary ID of Target Chain>


> <UniProt (TrEMBL) Secondary ID(s) of Target Chain>


> <UniProt (TrEMBL) Alternative ID(s) of Target Chain>


$$$$

  Mrv0541 11231414432D          

 11 12  0  0  0  0            999 V2000
    0.7182   -2.9729    0.0000 C   0  0  0  0  0  0  0  0  0  0  0  0
    0.7182   -3.7996    0.0000 C   0  0  0  0  0  0  0  0  0  0  0  0
    1.4317   -4.2088    0.0000 N   0  0  0  0  0  0  0  0  0  0  0  0
    1.4317   -2.5553    0.0000 C   0  0  0  0  0  0  0  0  0  0  0  0
    2.1452   -2.9729    0.0000 C   0  0  0  0  0  0  0  0  0  0  0  0
    2.1497   -3.7960    0.0000 C   0  0  0  0  0  0  0  0  0  0  0  0
    2.9339   -4.0461    0.0000 C   0  0  0  0  0  0  0  0  0  0  0  0
    3.4142   -3.3774    0.0000 C   0  0  0  0  0  0  0  0  0  0  0  0
    2.9266   -2.7142    0.0000 S   0  0  0  0  0  0  0  0  0  0  0  0
    1.4317   -1.7286    0.0000 Cl  0  0  0  0  0  0  0  0  0  0  0  0
    0.0028   -4.2140    0.0000 O   0  0  0  0  0  0  0  0  0  0  0  0
  1  2  1  0  0  0  0
  1  4  2  0  0  0  0
  2  3  1  0  0  0  0
  3  6  1  0  0  0  0
  6  7  1  0  0  0  0
  7  8  2  0  0  0  0
  8  9  1  0  0  0  0
  9  5  1  0  0  0  0
  5  4  1  0  0  0  0
  4 10  1  0  0  0  0
  5  6  2  0  0  0  0
  2 11  2  0  0  0  0
M  END
> <From>
www.bindingDB.org

> <BindingDB Reactant_set_id>
50628035

> <Ligand InChI>
InChI=1S/C7H4ClNOS/c8-4-3-6(10)9-5-1-2-11-7(4)5/h1-3H,(H,9,10)

> <Ligand InChI Key>
MDEADSGMJSCOBN-UHFFFAOYSA-N

> <BindingDB MonomerID>
50339012

> <BindingDB Ligand Name>
7-chlorothieno[3,2-b]pyridin-5(4H)-one::CHEMBL1688209

> <Target Name>
3-phosphoinositide-dependent protein kinase 1

> <Target Source Organism According to Curator or DataSource>
Homo sapiens

> <Ki (nM)>


> <IC50 (nM)>
 102000

> <Kd (nM)>


> <EC50 (nM)>


> <kon (M-1-s-1)>


> <koff (s-1)>


> <pH>


> <Temp C>


> <Curation/DataSource>
ChEMBL

> <Article DOI>
10.1021/ml100136n

> <BindingDB Entry DOI>
10.7270/Q22807WJ

> <PMID>
24900229

> <PubChem AID>


> <Patent Number>


> <Authors>
Medina, JR; Blackledge, CW; Heerding, DA; Campobasso, N; Ward, P; Briand, J; Wright, L; Axten, JM.

> <Date of publication>
12/28/2010

> <Date in BindingDB>
8/24/2011

> <Institution>
TBA

> <Link to Ligand in BindingDB>
http://www.bindingdb.org/bind/chemsearch/marvin/MolStructure.jsp?monomerid=50339012

> <Link to Ligand-Target Pair in BindingDB>
http://www.bindingdb.org/jsp/dbsearch/PrimarySearch_ki.jsp?energyterm=kJ/mole&tag=pol&polymerid=1744&target=3-phosphoinositide-dependent+protein+kinase+1&column=ki&startPg=0&Increment=50&submit=Search

> <Link to Ligand-Target Pair in BindingDB>
http://www.bindingdb.org/jsp/dbsearch/PrimarySearch_ki.jsp?energyterm=kJ/mole&tag=r21&monomerid=50339012&enzyme=3-phosphoinositide-dependent+protein+kinase+1&column=ki&startPg=0&Increment=50&submit=Search

> <Ligand HET ID in PDB>


> <PDB ID(s) for Ligand-Target Complex>


> <PubChem CID of Ligand>
12628603

> <PubChem SID of Ligand>
125089114

> <ChEBI ID of Ligand>


> <ChEMBL ID of Ligand>
CHEMBL1688209

> <DrugBank ID of Ligand>


> <IUPHAR_GRAC ID of Ligand>


> <KEGG ID of Ligand>


> <ZINC ID of Ligand>
ZINC66114154

> <Number of Protein Chains in Target (bigger than 1 implies a multichain complex)>
1

> <BindingDB Target Chain Sequence>
MARTTSQLYDAVPIQSSVVLCSCPSPSMVRTQTESSTPPGIPGGSRQGPAMDGTAAEPRPGAGSLQHAQPPPQPRKKRPEDFKFGKILGEGSFSTVVLARELATSREYAIKILEKRHIIKENKVPYVTRERDVMSRLDHPFFVKLYFTFQDDEKLYFGLSYAKNGELLKYIRKIGSFDETCTRFYTAEIVSALEYLHGKGIIHRDLKPENILLNEDMHIQITDFGTAKVLSPESKQARANSFVGTAQYVSPELLTEKSACKSSDLWALGCIIYQLVAGLPPFRAGNEYLIFQKIIKLEYDFPEKFFPKARDLVEKLLVLDATKRLGCEEMEGYGPLKAHPFFESVTWENLHQQTPPKLTAYLPAMSEDDEDCYGNYDNLLSQFGCMQVSSSSSSHSLSASDTGLPQRSGSNIEQYIHDLDSNSFELDLQFSEDEKRLLLEKQAGGNPWHQFVENNLILKMGPVDKRKGLFARRRQLLLTEGPHLYYVDPVNKVLKGEIPWSQELRPEAKNFKTFFVHTPNRTYYLMDPSGNAHKWCRKIQEVWRQRYQSHPDAAVQ

> <PDB ID(s) of Target Chain>
1H1W,1OKY,1OKZ,1UU3,1UU7,1UU8,1UU9,1UVR,1W1D,1W1G,1W1H,1Z5M,2PE0,2PE1,2PE2,2R7B,2XCH,3ION,3IOP,3NAX,3NAY,3NUN,3NUS,3NUU,3NUY,3QCQ,3QCS,3QCX,3QCY,3QD0,3QD3,3QD4,3RWP,3RWQ,3SC1,5HKM,5HNG,5HO7,5HO8

> <UniProt (SwissProt) Recommended Name of Target Chain>
3-phosphoinositide-dependent protein kinase 1

> <UniProt (SwissProt) Entry Name of Target Chain>
PDPK1_HUMAN

> <UniProt (SwissProt) Primary ID of Target Chain>
O15530

> <UniProt (SwissProt) Secondary ID(s) of Target Chain>
H0Y4Z0 Q59EH6 Q6FI20 Q8IV52 Q9BRD5

> <UniProt (SwissProt) Alternative ID(s) of Target Chain>


> <UniProt (TrEMBL) Submitted Name of Target Chain>


> <UniProt (TrEMBL) Entry Name of Target Chain>


> <UniProt (TrEMBL) Primary ID of Target Chain>


> <UniProt (TrEMBL) Secondary ID(s) of Target Chain>


> <UniProt (TrEMBL) Alternative ID(s) of Target Chain>


$$$$

  Mrv0541 11231414432D          

 11 11  0  0  0  0            999 V2000
   10.9527   -2.2583    0.0000 C   0  0  0  0  0  0  0  0  0  0  0  0
   10.9516   -3.0857    0.0000 C   0  0  0  0  0  0  0  0  0  0  0  0
   11.6664   -3.4985    0.0000 N   0  0  0  0  0  0  0  0  0  0  0  0
   12.3828   -3.0852    0.0000 N   0  0  0  0  0  0  0  0  0  0  0  0
   12.3800   -2.2547    0.0000 C   0  0  0  0  0  0  0  0  0  0  0  0
   11.6646   -1.8455    0.0000 N   0  0  0  0  0  0  0  0  0  0  0  0
   13.0929   -1.8395    0.0000 N   0  0  0  0  0  0  0  0  0  0  0  0
   10.2382   -1.8460    0.0000 N   0  0  0  0  0  0  0  0  0  0  0  0
   10.2368   -3.4976    0.0000 C   0  0  0  0  0  0  0  0  0  0  0  0
    9.5226   -3.0845    0.0000 N   0  0  0  0  0  0  0  0  0  0  0  0
   10.2361   -4.3226    0.0000 O   0  0  0  0  0  0  0  0  0  0  0  0
  5  6  1  0  0  0  0
  6  1  2  0  0  0  0
  1  2  1  0  0  0  0
  5  7  1  0  0  0  0
  3  4  1  0  0  0  0
  1  8  1  0  0  0  0
  2  9  1  0  0  0  0
  4  5  2  0  0  0  0
  9 10  1  0  0  0  0
  2  3  2  0  0  0  0
  9 11  2  0  0  0  0
M  END
> <From>
www.bindingDB.org

> <BindingDB Reactant_set_id>
50628037

> <Ligand InChI>
InChI=1S/C4H6N6O/c5-2-1(3(6)11)9-10-4(7)8-2/h(H2,6,11)(H4,5,7,8,10)

> <Ligand InChI Key>
LLFMNSHYPNPPIT-UHFFFAOYSA-N

> <BindingDB MonomerID>
50339014

> <BindingDB Ligand Name>
3,5-diamino-1,2,4-triazine-6-carboxamide::CHEMBL1688210

> <Target Name>
3-phosphoinositide-dependent protein kinase 1

> <Target Source Organism According to Curator or DataSource>
Homo sapiens

> <Ki (nM)>


> <IC50 (nM)>
 145000

> <Kd (nM)>


> <EC50 (nM)>


> <kon (M-1-s-1)>


> <koff (s-1)>


> <pH>


> <Temp C>


> <Curation/DataSource>
ChEMBL

> <Article DOI>
10.1021/ml100136n

> <BindingDB Entry DOI>
10.7270/Q22807WJ

> <PMID>
24900229

> <PubChem AID>


> <Patent Number>


> <Authors>
Medina, JR; Blackledge, CW; Heerding, DA; Campobasso, N; Ward, P; Briand, J; Wright, L; Axten, JM.

> <Date of publication>
12/28/2010

> <Date in BindingDB>
8/24/2011

> <Institution>
TBA

> <Link to Ligand in BindingDB>
http://www.bindingdb.org/bind/chemsearch/marvin/MolStructure.jsp?monomerid=50339014

> <Link to Ligand-Target Pair in BindingDB>
http://www.bindingdb.org/jsp/dbsearch/PrimarySearch_ki.jsp?energyterm=kJ/mole&tag=pol&polymerid=1744&target=3-phosphoinositide-dependent+protein+kinase+1&column=ki&startPg=0&Increment=50&submit=Search

> <Link to Ligand-Target Pair in BindingDB>
http://www.bindingdb.org/jsp/dbsearch/PrimarySearch_ki.jsp?energyterm=kJ/mole&tag=r21&monomerid=50339014&enzyme=3-phosphoinositide-dependent+protein+kinase+1&column=ki&startPg=0&Increment=50&submit=Search

> <Ligand HET ID in PDB>


> <PDB ID(s) for Ligand-Target Complex>


> <PubChem CID of Ligand>
53317177

> <PubChem SID of Ligand>
125089116

> <ChEBI ID of Ligand>


> <ChEMBL ID of Ligand>
CHEMBL1688210

> <DrugBank ID of Ligand>


> <IUPHAR_GRAC ID of Ligand>


> <KEGG ID of Ligand>


> <ZINC ID of Ligand>
ZINC66114155

> <Number of Protein Chains in Target (bigger than 1 implies a multichain complex)>
1

> <BindingDB Target Chain Sequence>
MARTTSQLYDAVPIQSSVVLCSCPSPSMVRTQTESSTPPGIPGGSRQGPAMDGTAAEPRPGAGSLQHAQPPPQPRKKRPEDFKFGKILGEGSFSTVVLARELATSREYAIKILEKRHIIKENKVPYVTRERDVMSRLDHPFFVKLYFTFQDDEKLYFGLSYAKNGELLKYIRKIGSFDETCTRFYTAEIVSALEYLHGKGIIHRDLKPENILLNEDMHIQITDFGTAKVLSPESKQARANSFVGTAQYVSPELLTEKSACKSSDLWALGCIIYQLVAGLPPFRAGNEYLIFQKIIKLEYDFPEKFFPKARDLVEKLLVLDATKRLGCEEMEGYGPLKAHPFFESVTWENLHQQTPPKLTAYLPAMSEDDEDCYGNYDNLLSQFGCMQVSSSSSSHSLSASDTGLPQRSGSNIEQYIHDLDSNSFELDLQFSEDEKRLLLEKQAGGNPWHQFVENNLILKMGPVDKRKGLFARRRQLLLTEGPHLYYVDPVNKVLKGEIPWSQELRPEAKNFKTFFVHTPNRTYYLMDPSGNAHKWCRKIQEVWRQRYQSHPDAAVQ

> <PDB ID(s) of Target Chain>
1H1W,1OKY,1OKZ,1UU3,1UU7,1UU8,1UU9,1UVR,1W1D,1W1G,1W1H,1Z5M,2PE0,2PE1,2PE2,2R7B,2XCH,3ION,3IOP,3NAX,3NAY,3NUN,3NUS,3NUU,3NUY,3QCQ,3QCS,3QCX,3QCY,3QD0,3QD3,3QD4,3RWP,3RWQ,3SC1,5HKM,5HNG,5HO7,5HO8

> <UniProt (SwissProt) Recommended Name of Target Chain>
3-phosphoinositide-dependent protein kinase 1

> <UniProt (SwissProt) Entry Name of Target Chain>
PDPK1_HUMAN

> <UniProt (SwissProt) Primary ID of Target Chain>
O15530

> <UniProt (SwissProt) Secondary ID(s) of Target Chain>
H0Y4Z0 Q59EH6 Q6FI20 Q8IV52 Q9BRD5

> <UniProt (SwissProt) Alternative ID(s) of Target Chain>


> <UniProt (TrEMBL) Submitted Name of Target Chain>


> <UniProt (TrEMBL) Entry Name of Target Chain>


> <UniProt (TrEMBL) Primary ID of Target Chain>


> <UniProt (TrEMBL) Secondary ID(s) of Target Chain>


> <UniProt (TrEMBL) Alternative ID(s) of Target Chain>


$$$$

  Mrv0541 11231414432D          

 11 12  0  0  0  0            999 V2000
   16.0665   -3.9059    0.0000 N   0  0  0  0  0  0  0  0  0  0  0  0
   16.7827   -3.4926    0.0000 N   0  0  0  0  0  0  0  0  0  0  0  0
   16.7798   -2.6623    0.0000 C   0  0  0  0  0  0  0  0  0  0  0  0
   16.0647   -2.2533    0.0000 N   0  0  0  0  0  0  0  0  0  0  0  0
   17.4926   -2.2472    0.0000 N   0  0  0  0  0  0  0  0  0  0  0  0
   15.3518   -3.4931    0.0000 C   0  0  0  0  0  0  0  0  0  0  0  0
   15.3542   -2.6677    0.0000 C   0  0  0  0  0  0  0  0  0  0  0  0
   14.6416   -2.2549    0.0000 C   0  0  0  0  0  0  0  0  0  0  0  0
   13.9263   -2.6662    0.0000 C   0  0  0  0  0  0  0  0  0  0  0  0
   13.9280   -3.4947    0.0000 C   0  0  0  0  0  0  0  0  0  0  0  0
   14.6411   -3.9039    0.0000 C   0  0  0  0  0  0  0  0  0  0  0  0
  3  5  1  0  0  0  0
  6  1  2  0  0  0  0
  2  3  2  0  0  0  0
  6  7  1  0  0  0  0
  7  8  1  0  0  0  0
  3  4  1  0  0  0  0
  8  9  2  0  0  0  0
  4  7  2  0  0  0  0
  9 10  1  0  0  0  0
  1  2  1  0  0  0  0
 10 11  2  0  0  0  0
 11  6  1  0  0  0  0
M  END
> <From>
www.bindingDB.org

> <BindingDB Reactant_set_id>
50628038

> <Ligand InChI>
InChI=1S/C7H6N4/c8-7-9-5-3-1-2-4-6(5)10-11-7/h1-4H,(H2,8,9,11)

> <Ligand InChI Key>
BHHRGAKNBXQGIO-UHFFFAOYSA-N

> <BindingDB MonomerID>
50339015

> <BindingDB Ligand Name>
CHEMBL1688211::benzo[e][1,2,4]triazin-3-amine

> <Target Name>
3-phosphoinositide-dependent protein kinase 1

> <Target Source Organism According to Curator or DataSource>
Homo sapiens

> <Ki (nM)>


> <IC50 (nM)>
 160000

> <Kd (nM)>


> <EC50 (nM)>


> <kon (M-1-s-1)>


> <koff (s-1)>


> <pH>


> <Temp C>


> <Curation/DataSource>
ChEMBL

> <Article DOI>
10.1021/ml100136n

> <BindingDB Entry DOI>
10.7270/Q22807WJ

> <PMID>
24900229

> <PubChem AID>


> <Patent Number>


> <Authors>
Medina, JR; Blackledge, CW; Heerding, DA; Campobasso, N; Ward, P; Briand, J; Wright, L; Axten, JM.

> <Date of publication>
12/28/2010

> <Date in BindingDB>
8/24/2011

> <Institution>
TBA

> <Link to Ligand in BindingDB>
http://www.bindingdb.org/bind/chemsearch/marvin/MolStructure.jsp?monomerid=50339015

> <Link to Ligand-Target Pair in BindingDB>
http://www.bindingdb.org/jsp/dbsearch/PrimarySearch_ki.jsp?energyterm=kJ/mole&tag=pol&polymerid=1744&target=3-phosphoinositide-dependent+protein+kinase+1&column=ki&startPg=0&Increment=50&submit=Search

> <Link to Ligand-Target Pair in BindingDB>
http://www.bindingdb.org/jsp/dbsearch/PrimarySearch_ki.jsp?energyterm=kJ/mole&tag=r21&monomerid=50339015&enzyme=3-phosphoinositide-dependent+protein+kinase+1&column=ki&startPg=0&Increment=50&submit=Search

> <Ligand HET ID in PDB>


> <PDB ID(s) for Ligand-Target Complex>


> <PubChem CID of Ligand>
88336

> <PubChem SID of Ligand>
125089117

> <ChEBI ID of Ligand>


> <ChEMBL ID of Ligand>
CHEMBL1688211

> <DrugBank ID of Ligand>


> <IUPHAR_GRAC ID of Ligand>


> <KEGG ID of Ligand>


> <ZINC ID of Ligand>
ZINC01866060

> <Number of Protein Chains in Target (bigger than 1 implies a multichain complex)>
1

> <BindingDB Target Chain Sequence>
MARTTSQLYDAVPIQSSVVLCSCPSPSMVRTQTESSTPPGIPGGSRQGPAMDGTAAEPRPGAGSLQHAQPPPQPRKKRPEDFKFGKILGEGSFSTVVLARELATSREYAIKILEKRHIIKENKVPYVTRERDVMSRLDHPFFVKLYFTFQDDEKLYFGLSYAKNGELLKYIRKIGSFDETCTRFYTAEIVSALEYLHGKGIIHRDLKPENILLNEDMHIQITDFGTAKVLSPESKQARANSFVGTAQYVSPELLTEKSACKSSDLWALGCIIYQLVAGLPPFRAGNEYLIFQKIIKLEYDFPEKFFPKARDLVEKLLVLDATKRLGCEEMEGYGPLKAHPFFESVTWENLHQQTPPKLTAYLPAMSEDDEDCYGNYDNLLSQFGCMQVSSSSSSHSLSASDTGLPQRSGSNIEQYIHDLDSNSFELDLQFSEDEKRLLLEKQAGGNPWHQFVENNLILKMGPVDKRKGLFARRRQLLLTEGPHLYYVDPVNKVLKGEIPWSQELRPEAKNFKTFFVHTPNRTYYLMDPSGNAHKWCRKIQEVWRQRYQSHPDAAVQ

> <PDB ID(s) of Target Chain>
1H1W,1OKY,1OKZ,1UU3,1UU7,1UU8,1UU9,1UVR,1W1D,1W1G,1W1H,1Z5M,2PE0,2PE1,2PE2,2R7B,2XCH,3ION,3IOP,3NAX,3NAY,3NUN,3NUS,3NUU,3NUY,3QCQ,3QCS,3QCX,3QCY,3QD0,3QD3,3QD4,3RWP,3RWQ,3SC1,5HKM,5HNG,5HO7,5HO8

> <UniProt (SwissProt) Recommended Name of Target Chain>
3-phosphoinositide-dependent protein kinase 1

> <UniProt (SwissProt) Entry Name of Target Chain>
PDPK1_HUMAN

> <UniProt (SwissProt) Primary ID of Target Chain>
O15530

> <UniProt (SwissProt) Secondary ID(s) of Target Chain>
H0Y4Z0 Q59EH6 Q6FI20 Q8IV52 Q9BRD5

> <UniProt (SwissProt) Alternative ID(s) of Target Chain>


> <UniProt (TrEMBL) Submitted Name of Target Chain>


> <UniProt (TrEMBL) Entry Name of Target Chain>


> <UniProt (TrEMBL) Primary ID of Target Chain>


> <UniProt (TrEMBL) Secondary ID(s) of Target Chain>


> <UniProt (TrEMBL) Alternative ID(s) of Target Chain>


$$$$

  Mrv0541 11231414432D          

 11 12  0  0  0  0            999 V2000
   -4.7077   -7.0407    0.0000 C   0  0  0  0  0  0  0  0  0  0  0  0
   -4.7089   -7.8670    0.0000 C   0  0  0  0  0  0  0  0  0  0  0  0
   -3.9950   -8.2793    0.0000 C   0  0  0  0  0  0  0  0  0  0  0  0
   -3.9968   -6.6285    0.0000 C   0  0  0  0  0  0  0  0  0  0  0  0
   -3.2823   -7.0370    0.0000 C   0  0  0  0  0  0  0  0  0  0  0  0
   -3.2790   -7.8645    0.0000 C   0  0  0  0  0  0  0  0  0  0  0  0
   -2.5648   -8.2729    0.0000 C   0  0  0  0  0  0  0  0  0  0  0  0
   -1.8493   -7.8586    0.0000 C   0  0  0  0  0  0  0  0  0  0  0  0
   -1.8527   -7.0312    0.0000 N   0  0  0  0  0  0  0  0  0  0  0  0
   -2.5716   -6.6182    0.0000 C   0  0  0  0  0  0  0  0  0  0  0  0
   -2.5760   -5.7943    0.0000 O   0  0  0  0  0  0  0  0  0  0  0  0
  2  3  1  0  0  0  0
  3  6  2  0  0  0  0
  1  2  2  0  0  0  0
  5  4  2  0  0  0  0
  4  1  1  0  0  0  0
  5 10  1  0  0  0  0
  6  7  1  0  0  0  0
  7  8  1  0  0  0  0
  8  9  1  0  0  0  0
  9 10  1  0  0  0  0
  5  6  1  0  0  0  0
 10 11  2  0  0  0  0
M  END
> <From>
www.bindingDB.org

> <BindingDB Reactant_set_id>
50628039

> <Ligand InChI>
InChI=1S/C9H9NO/c11-9-8-4-2-1-3-7(8)5-6-10-9/h1-4H,5-6H2,(H,10,11)

> <Ligand InChI Key>
YWPMKTWUFVOFPL-UHFFFAOYSA-N

> <BindingDB MonomerID>
50339016

> <BindingDB Ligand Name>
3,4-dihydroisoquinolin-1(2H)-one::CHEMBL1688212

> <Target Name>
3-phosphoinositide-dependent protein kinase 1

> <Target Source Organism According to Curator or DataSource>
Homo sapiens

> <Ki (nM)>


> <IC50 (nM)>
 169000

> <Kd (nM)>


> <EC50 (nM)>


> <kon (M-1-s-1)>


> <koff (s-1)>


> <pH>


> <Temp C>


> <Curation/DataSource>
ChEMBL

> <Article DOI>
10.1021/ml100136n

> <BindingDB Entry DOI>
10.7270/Q22807WJ

> <PMID>
24900229

> <PubChem AID>


> <Patent Number>


> <Authors>
Medina, JR; Blackledge, CW; Heerding, DA; Campobasso, N; Ward, P; Briand, J; Wright, L; Axten, JM.

> <Date of publication>
12/28/2010

> <Date in BindingDB>
8/24/2011

> <Institution>
TBA

> <Link to Ligand in BindingDB>
http://www.bindingdb.org/bind/chemsearch/marvin/MolStructure.jsp?monomerid=50339016

> <Link to Ligand-Target Pair in BindingDB>
http://www.bindingdb.org/jsp/dbsearch/PrimarySearch_ki.jsp?energyterm=kJ/mole&tag=pol&polymerid=1744&target=3-phosphoinositide-dependent+protein+kinase+1&column=ki&startPg=0&Increment=50&submit=Search

> <Link to Ligand-Target Pair in BindingDB>
http://www.bindingdb.org/jsp/dbsearch/PrimarySearch_ki.jsp?energyterm=kJ/mole&tag=r21&monomerid=50339016&enzyme=3-phosphoinositide-dependent+protein+kinase+1&column=ki&startPg=0&Increment=50&submit=Search

> <Ligand HET ID in PDB>
JOZ

> <PDB ID(s) for Ligand-Target Complex>
3NUU

> <PubChem CID of Ligand>
150896

> <PubChem SID of Ligand>
125089118

> <ChEBI ID of Ligand>


> <ChEMBL ID of Ligand>
CHEMBL1688212

> <DrugBank ID of Ligand>


> <IUPHAR_GRAC ID of Ligand>


> <KEGG ID of Ligand>


> <ZINC ID of Ligand>
ZINC05603571

> <Number of Protein Chains in Target (bigger than 1 implies a multichain complex)>
1

> <BindingDB Target Chain Sequence>
MARTTSQLYDAVPIQSSVVLCSCPSPSMVRTQTESSTPPGIPGGSRQGPAMDGTAAEPRPGAGSLQHAQPPPQPRKKRPEDFKFGKILGEGSFSTVVLARELATSREYAIKILEKRHIIKENKVPYVTRERDVMSRLDHPFFVKLYFTFQDDEKLYFGLSYAKNGELLKYIRKIGSFDETCTRFYTAEIVSALEYLHGKGIIHRDLKPENILLNEDMHIQITDFGTAKVLSPESKQARANSFVGTAQYVSPELLTEKSACKSSDLWALGCIIYQLVAGLPPFRAGNEYLIFQKIIKLEYDFPEKFFPKARDLVEKLLVLDATKRLGCEEMEGYGPLKAHPFFESVTWENLHQQTPPKLTAYLPAMSEDDEDCYGNYDNLLSQFGCMQVSSSSSSHSLSASDTGLPQRSGSNIEQYIHDLDSNSFELDLQFSEDEKRLLLEKQAGGNPWHQFVENNLILKMGPVDKRKGLFARRRQLLLTEGPHLYYVDPVNKVLKGEIPWSQELRPEAKNFKTFFVHTPNRTYYLMDPSGNAHKWCRKIQEVWRQRYQSHPDAAVQ

> <PDB ID(s) of Target Chain>
1H1W,1OKY,1OKZ,1UU3,1UU7,1UU8,1UU9,1UVR,1W1D,1W1G,1W1H,1Z5M,2PE0,2PE1,2PE2,2R7B,2XCH,3ION,3IOP,3NAX,3NAY,3NUN,3NUS,3NUU,3NUY,3QCQ,3QCS,3QCX,3QCY,3QD0,3QD3,3QD4,3RWP,3RWQ,3SC1,5HKM,5HNG,5HO7,5HO8

> <UniProt (SwissProt) Recommended Name of Target Chain>
3-phosphoinositide-dependent protein kinase 1

> <UniProt (SwissProt) Entry Name of Target Chain>
PDPK1_HUMAN

> <UniProt (SwissProt) Primary ID of Target Chain>
O15530

> <UniProt (SwissProt) Secondary ID(s) of Target Chain>
H0Y4Z0 Q59EH6 Q6FI20 Q8IV52 Q9BRD5

> <UniProt (SwissProt) Alternative ID(s) of Target Chain>


> <UniProt (TrEMBL) Submitted Name of Target Chain>


> <UniProt (TrEMBL) Entry Name of Target Chain>


> <UniProt (TrEMBL) Primary ID of Target Chain>


> <UniProt (TrEMBL) Secondary ID(s) of Target Chain>


> <UniProt (TrEMBL) Alternative ID(s) of Target Chain>


$$$$

  Mrv0541 11231414432D          

  9  9  0  0  0  0            999 V2000
    0.6500    0.6792    0.0000 C   0  0  0  0  0  0  0  0  0  0  0  0
    1.4750    0.6792    0.0000 C   0  0  0  0  0  0  0  0  0  0  0  0
    1.7318   -0.1049    0.0000 N   0  0  0  0  0  0  0  0  0  0  0  0
    1.0625   -0.5917    0.0000 N   0  0  0  0  0  0  0  0  0  0  0  0
    0.3974   -0.1049    0.0000 C   0  0  0  0  0  0  0  0  0  0  0  0
    1.9591    1.3472    0.0000 C   0  0  0  0  0  0  0  0  0  0  0  0
    2.7797    1.2619    0.0000 O   0  0  0  0  0  0  0  0  0  0  0  0
    1.6227    2.1005    0.0000 N   0  0  0  0  0  0  0  0  0  0  0  0
    0.1642    1.3460    0.0000 N   0  0  0  0  0  0  0  0  0  0  0  0
  4  5  2  0  0  0  0
  5  1  1  0  0  0  0
  1  2  2  0  0  0  0
  2  6  1  0  0  0  0
  6  7  2  0  0  0  0
  2  3  1  0  0  0  0
  6  8  1  0  0  0  0
  3  4  1  0  0  0  0
  1  9  1  0  0  0  0
M  END
> <From>
www.bindingDB.org

> <BindingDB Reactant_set_id>
50628030

> <Ligand InChI>
InChI=1S/C4H6N4O/c5-2-1-7-8-3(2)4(6)9/h1H,5H2,(H2,6,9)(H,7,8)

> <Ligand InChI Key>
JVXDFTZWKFHULK-UHFFFAOYSA-N

> <BindingDB MonomerID>
50339008

> <BindingDB Ligand Name>
4-amino-1H-pyrazole-3-carboxamide::CHEMBL1688205

> <Target Name>
3-phosphoinositide-dependent protein kinase 1

> <Target Source Organism According to Curator or DataSource>
Homo sapiens

> <Ki (nM)>


> <IC50 (nM)>
 200000

> <Kd (nM)>


> <EC50 (nM)>


> <kon (M-1-s-1)>


> <koff (s-1)>


> <pH>


> <Temp C>


> <Curation/DataSource>
ChEMBL

> <Article DOI>
10.1021/ml100136n

> <BindingDB Entry DOI>
10.7270/Q22807WJ

> <PMID>
24900229

> <PubChem AID>


> <Patent Number>


> <Authors>
Medina, JR; Blackledge, CW; Heerding, DA; Campobasso, N; Ward, P; Briand, J; Wright, L; Axten, JM.

> <Date of publication>
12/28/2010

> <Date in BindingDB>
8/24/2011

> <Institution>
TBA

> <Link to Ligand in BindingDB>
http://www.bindingdb.org/bind/chemsearch/marvin/MolStructure.jsp?monomerid=50339008

> <Link to Ligand-Target Pair in BindingDB>
http://www.bindingdb.org/jsp/dbsearch/PrimarySearch_ki.jsp?energyterm=kJ/mole&tag=pol&polymerid=1744&target=3-phosphoinositide-dependent+protein+kinase+1&column=ki&startPg=0&Increment=50&submit=Search

> <Link to Ligand-Target Pair in BindingDB>
http://www.bindingdb.org/jsp/dbsearch/PrimarySearch_ki.jsp?energyterm=kJ/mole&tag=r21&monomerid=50339008&enzyme=3-phosphoinositide-dependent+protein+kinase+1&column=ki&startPg=0&Increment=50&submit=Search

> <Ligand HET ID in PDB>


> <PDB ID(s) for Ligand-Target Complex>


> <PubChem CID of Ligand>
580973

> <PubChem SID of Ligand>
125089110

> <ChEBI ID of Ligand>


> <ChEMBL ID of Ligand>
CHEMBL1688205

> <DrugBank ID of Ligand>


> <IUPHAR_GRAC ID of Ligand>


> <KEGG ID of Ligand>


> <ZINC ID of Ligand>
ZINC01072662

> <Number of Protein Chains in Target (bigger than 1 implies a multichain complex)>
1

> <BindingDB Target Chain Sequence>
MARTTSQLYDAVPIQSSVVLCSCPSPSMVRTQTESSTPPGIPGGSRQGPAMDGTAAEPRPGAGSLQHAQPPPQPRKKRPEDFKFGKILGEGSFSTVVLARELATSREYAIKILEKRHIIKENKVPYVTRERDVMSRLDHPFFVKLYFTFQDDEKLYFGLSYAKNGELLKYIRKIGSFDETCTRFYTAEIVSALEYLHGKGIIHRDLKPENILLNEDMHIQITDFGTAKVLSPESKQARANSFVGTAQYVSPELLTEKSACKSSDLWALGCIIYQLVAGLPPFRAGNEYLIFQKIIKLEYDFPEKFFPKARDLVEKLLVLDATKRLGCEEMEGYGPLKAHPFFESVTWENLHQQTPPKLTAYLPAMSEDDEDCYGNYDNLLSQFGCMQVSSSSSSHSLSASDTGLPQRSGSNIEQYIHDLDSNSFELDLQFSEDEKRLLLEKQAGGNPWHQFVENNLILKMGPVDKRKGLFARRRQLLLTEGPHLYYVDPVNKVLKGEIPWSQELRPEAKNFKTFFVHTPNRTYYLMDPSGNAHKWCRKIQEVWRQRYQSHPDAAVQ

> <PDB ID(s) of Target Chain>
1H1W,1OKY,1OKZ,1UU3,1UU7,1UU8,1UU9,1UVR,1W1D,1W1G,1W1H,1Z5M,2PE0,2PE1,2PE2,2R7B,2XCH,3ION,3IOP,3NAX,3NAY,3NUN,3NUS,3NUU,3NUY,3QCQ,3QCS,3QCX,3QCY,3QD0,3QD3,3QD4,3RWP,3RWQ,3SC1,5HKM,5HNG,5HO7,5HO8

> <UniProt (SwissProt) Recommended Name of Target Chain>
3-phosphoinositide-dependent protein kinase 1

> <UniProt (SwissProt) Entry Name of Target Chain>
PDPK1_HUMAN

> <UniProt (SwissProt) Primary ID of Target Chain>
O15530

> <UniProt (SwissProt) Secondary ID(s) of Target Chain>
H0Y4Z0 Q59EH6 Q6FI20 Q8IV52 Q9BRD5

> <UniProt (SwissProt) Alternative ID(s) of Target Chain>


> <UniProt (TrEMBL) Submitted Name of Target Chain>


> <UniProt (TrEMBL) Entry Name of Target Chain>


> <UniProt (TrEMBL) Primary ID of Target Chain>


> <UniProt (TrEMBL) Secondary ID(s) of Target Chain>


> <UniProt (TrEMBL) Alternative ID(s) of Target Chain>


$$$$

  Mrv0541 11231414432D          

  9 10  0  0  0  0            999 V2000
    4.3917    0.9958    0.0000 C   0  0  0  0  0  0  0  0  0  0  0  0
    4.3917    0.1708    0.0000 C   0  0  0  0  0  0  0  0  0  0  0  0
    5.1037   -0.2375    0.0000 C   0  0  0  0  0  0  0  0  0  0  0  0
    5.1037    1.4125    0.0000 C   0  0  0  0  0  0  0  0  0  0  0  0
    5.8157    0.9958    0.0000 C   0  0  0  0  0  0  0  0  0  0  0  0
    5.8157    0.1744    0.0000 N   0  0  0  0  0  0  0  0  0  0  0  0
    6.5969   -0.0795    0.0000 C   0  0  0  0  0  0  0  0  0  0  0  0
    7.0798    0.5851    0.0000 N   0  0  0  0  0  0  0  0  0  0  0  0
    6.5970    1.2496    0.0000 N   0  0  0  0  0  0  0  0  0  0  0  0
  5  4  1  0  0  0  0
  5  6  1  0  0  0  0
  1  2  1  0  0  0  0
  1  4  1  0  0  0  0
  2  3  1  0  0  0  0
  3  6  1  0  0  0  0
  6  7  1  0  0  0  0
  7  8  2  0  0  0  0
  8  9  1  0  0  0  0
  9  5  2  0  0  0  0
M  END
> <From>
www.bindingDB.org

> <BindingDB Reactant_set_id>
50628031

> <Ligand InChI>
InChI=1S/C6H9N3/c1-2-4-9-5-7-8-6(9)3-1/h5H,1-4H2

> <Ligand InChI Key>
MKOIWLVTFRQTJW-UHFFFAOYSA-N

> <BindingDB MonomerID>
50339009

> <BindingDB Ligand Name>
5,6,7,8-tetrahydro-[1,2,4]triazolo[4,3-a]pyridine::CHEMBL1688206

> <Target Name>
3-phosphoinositide-dependent protein kinase 1

> <Target Source Organism According to Curator or DataSource>
Homo sapiens

> <Ki (nM)>


> <IC50 (nM)>
 244000

> <Kd (nM)>


> <EC50 (nM)>


> <kon (M-1-s-1)>


> <koff (s-1)>


> <pH>


> <Temp C>


> <Curation/DataSource>
ChEMBL

> <Article DOI>
10.1021/ml100136n

> <BindingDB Entry DOI>
10.7270/Q22807WJ

> <PMID>
24900229

> <PubChem AID>


> <Patent Number>


> <Authors>
Medina, JR; Blackledge, CW; Heerding, DA; Campobasso, N; Ward, P; Briand, J; Wright, L; Axten, JM.

> <Date of publication>
12/28/2010

> <Date in BindingDB>
8/24/2011

> <Institution>
TBA

> <Link to Ligand in BindingDB>
http://www.bindingdb.org/bind/chemsearch/marvin/MolStructure.jsp?monomerid=50339009

> <Link to Ligand-Target Pair in BindingDB>
http://www.bindingdb.org/jsp/dbsearch/PrimarySearch_ki.jsp?energyterm=kJ/mole&tag=pol&polymerid=1744&target=3-phosphoinositide-dependent+protein+kinase+1&column=ki&startPg=0&Increment=50&submit=Search

> <Link to Ligand-Target Pair in BindingDB>
http://www.bindingdb.org/jsp/dbsearch/PrimarySearch_ki.jsp?energyterm=kJ/mole&tag=r21&monomerid=50339009&enzyme=3-phosphoinositide-dependent+protein+kinase+1&column=ki&startPg=0&Increment=50&submit=Search

> <Ligand HET ID in PDB>


> <PDB ID(s) for Ligand-Target Complex>


> <PubChem CID of Ligand>
20289271

> <PubChem SID of Ligand>
125089111

> <ChEBI ID of Ligand>


> <ChEMBL ID of Ligand>
CHEMBL1688206

> <DrugBank ID of Ligand>


> <IUPHAR_GRAC ID of Ligand>


> <KEGG ID of Ligand>


> <ZINC ID of Ligand>
ZINC42384352

> <Number of Protein Chains in Target (bigger than 1 implies a multichain complex)>
1

> <BindingDB Target Chain Sequence>
MARTTSQLYDAVPIQSSVVLCSCPSPSMVRTQTESSTPPGIPGGSRQGPAMDGTAAEPRPGAGSLQHAQPPPQPRKKRPEDFKFGKILGEGSFSTVVLARELATSREYAIKILEKRHIIKENKVPYVTRERDVMSRLDHPFFVKLYFTFQDDEKLYFGLSYAKNGELLKYIRKIGSFDETCTRFYTAEIVSALEYLHGKGIIHRDLKPENILLNEDMHIQITDFGTAKVLSPESKQARANSFVGTAQYVSPELLTEKSACKSSDLWALGCIIYQLVAGLPPFRAGNEYLIFQKIIKLEYDFPEKFFPKARDLVEKLLVLDATKRLGCEEMEGYGPLKAHPFFESVTWENLHQQTPPKLTAYLPAMSEDDEDCYGNYDNLLSQFGCMQVSSSSSSHSLSASDTGLPQRSGSNIEQYIHDLDSNSFELDLQFSEDEKRLLLEKQAGGNPWHQFVENNLILKMGPVDKRKGLFARRRQLLLTEGPHLYYVDPVNKVLKGEIPWSQELRPEAKNFKTFFVHTPNRTYYLMDPSGNAHKWCRKIQEVWRQRYQSHPDAAVQ

> <PDB ID(s) of Target Chain>
1H1W,1OKY,1OKZ,1UU3,1UU7,1UU8,1UU9,1UVR,1W1D,1W1G,1W1H,1Z5M,2PE0,2PE1,2PE2,2R7B,2XCH,3ION,3IOP,3NAX,3NAY,3NUN,3NUS,3NUU,3NUY,3QCQ,3QCS,3QCX,3QCY,3QD0,3QD3,3QD4,3RWP,3RWQ,3SC1,5HKM,5HNG,5HO7,5HO8

> <UniProt (SwissProt) Recommended Name of Target Chain>
3-phosphoinositide-dependent protein kinase 1

> <UniProt (SwissProt) Entry Name of Target Chain>
PDPK1_HUMAN

> <UniProt (SwissProt) Primary ID of Target Chain>
O15530

> <UniProt (SwissProt) Secondary ID(s) of Target Chain>
H0Y4Z0 Q59EH6 Q6FI20 Q8IV52 Q9BRD5

> <UniProt (SwissProt) Alternative ID(s) of Target Chain>


> <UniProt (TrEMBL) Submitted Name of Target Chain>


> <UniProt (TrEMBL) Entry Name of Target Chain>


> <UniProt (TrEMBL) Primary ID of Target Chain>


> <UniProt (TrEMBL) Secondary ID(s) of Target Chain>


> <UniProt (TrEMBL) Alternative ID(s) of Target Chain>


$$$$

  Mrv0541 11231414432D          

 11 12  0  0  0  0            999 V2000
    6.2297   -4.9124    0.0000 S   0  0  0  0  0  0  0  0  0  0  0  0
    5.7428   -4.2457    0.0000 C   0  0  0  0  0  0  0  0  0  0  0  0
    6.2259   -3.5786    0.0000 N   0  0  0  0  0  0  0  0  0  0  0  0
    7.0075   -3.8306    0.0000 C   0  0  0  0  0  0  0  0  0  0  0  0
    7.0118   -4.6557    0.0000 C   0  0  0  0  0  0  0  0  0  0  0  0
    7.7191   -3.4156    0.0000 C   0  0  0  0  0  0  0  0  0  0  0  0
    8.4351   -3.8256    0.0000 C   0  0  0  0  0  0  0  0  0  0  0  0
    8.4393   -4.6507    0.0000 C   0  0  0  0  0  0  0  0  0  0  0  0
    7.7276   -5.0657    0.0000 C   0  0  0  0  0  0  0  0  0  0  0  0
    7.7148   -2.5906    0.0000 O   0  0  0  0  0  0  0  0  0  0  0  0
    4.9178   -4.2474    0.0000 N   0  0  0  0  0  0  0  0  0  0  0  0
  1  2  1  0  0  0  0
  2  3  2  0  0  0  0
  3  4  1  0  0  0  0
  4  5  1  0  0  0  0
  1  5  1  0  0  0  0
  6  7  1  0  0  0  0
  7  8  2  0  0  0  0
  8  9  1  0  0  0  0
  5  9  2  0  0  0  0
  4  6  2  0  0  0  0
  6 10  1  0  0  0  0
  2 11  1  0  0  0  0
M  END
> <From>
www.bindingDB.org

> <BindingDB Reactant_set_id>
50628041

> <Ligand InChI>
InChI=1S/C7H6N2OS/c8-7-9-6-4(10)2-1-3-5(6)11-7/h1-3,10H,(H2,8,9)

> <Ligand InChI Key>
PFQJPSASUCHKRO-UHFFFAOYSA-N

> <BindingDB MonomerID>
50339018

> <BindingDB Ligand Name>
2-Aminobenzothiazol-4-ol::2-aminobenzo[d]thiazol-4-ol::CHEMBL1269497

> <Target Name>
3-phosphoinositide-dependent protein kinase 1

> <Target Source Organism According to Curator or DataSource>
Homo sapiens

> <Ki (nM)>


> <IC50 (nM)>
 256000

> <Kd (nM)>


> <EC50 (nM)>


> <kon (M-1-s-1)>


> <koff (s-1)>


> <pH>


> <Temp C>


> <Curation/DataSource>
ChEMBL

> <Article DOI>
10.1021/ml100136n

> <BindingDB Entry DOI>
10.7270/Q22807WJ

> <PMID>
24900229

> <PubChem AID>


> <Patent Number>


> <Authors>
Medina, JR; Blackledge, CW; Heerding, DA; Campobasso, N; Ward, P; Briand, J; Wright, L; Axten, JM.

> <Date of publication>
12/28/2010

> <Date in BindingDB>
8/24/2011

> <Institution>
TBA

> <Link to Ligand in BindingDB>
http://www.bindingdb.org/bind/chemsearch/marvin/MolStructure.jsp?monomerid=50339018

> <Link to Ligand-Target Pair in BindingDB>
http://www.bindingdb.org/jsp/dbsearch/PrimarySearch_ki.jsp?energyterm=kJ/mole&tag=pol&polymerid=1744&target=3-phosphoinositide-dependent+protein+kinase+1&column=ki&startPg=0&Increment=50&submit=Search

> <Link to Ligand-Target Pair in BindingDB>
http://www.bindingdb.org/jsp/dbsearch/PrimarySearch_ki.jsp?energyterm=kJ/mole&tag=r21&monomerid=50339018&enzyme=3-phosphoinositide-dependent+protein+kinase+1&column=ki&startPg=0&Increment=50&submit=Search

> <Ligand HET ID in PDB>


> <PDB ID(s) for Ligand-Target Complex>


> <PubChem CID of Ligand>
24057

> <PubChem SID of Ligand>
125089120

> <ChEBI ID of Ligand>


> <ChEMBL ID of Ligand>
CHEMBL1269497

> <DrugBank ID of Ligand>


> <IUPHAR_GRAC ID of Ligand>


> <KEGG ID of Ligand>


> <ZINC ID of Ligand>
ZINC17158381

> <Number of Protein Chains in Target (bigger than 1 implies a multichain complex)>
1

> <BindingDB Target Chain Sequence>
MARTTSQLYDAVPIQSSVVLCSCPSPSMVRTQTESSTPPGIPGGSRQGPAMDGTAAEPRPGAGSLQHAQPPPQPRKKRPEDFKFGKILGEGSFSTVVLARELATSREYAIKILEKRHIIKENKVPYVTRERDVMSRLDHPFFVKLYFTFQDDEKLYFGLSYAKNGELLKYIRKIGSFDETCTRFYTAEIVSALEYLHGKGIIHRDLKPENILLNEDMHIQITDFGTAKVLSPESKQARANSFVGTAQYVSPELLTEKSACKSSDLWALGCIIYQLVAGLPPFRAGNEYLIFQKIIKLEYDFPEKFFPKARDLVEKLLVLDATKRLGCEEMEGYGPLKAHPFFESVTWENLHQQTPPKLTAYLPAMSEDDEDCYGNYDNLLSQFGCMQVSSSSSSHSLSASDTGLPQRSGSNIEQYIHDLDSNSFELDLQFSEDEKRLLLEKQAGGNPWHQFVENNLILKMGPVDKRKGLFARRRQLLLTEGPHLYYVDPVNKVLKGEIPWSQELRPEAKNFKTFFVHTPNRTYYLMDPSGNAHKWCRKIQEVWRQRYQSHPDAAVQ

> <PDB ID(s) of Target Chain>
1H1W,1OKY,1OKZ,1UU3,1UU7,1UU8,1UU9,1UVR,1W1D,1W1G,1W1H,1Z5M,2PE0,2PE1,2PE2,2R7B,2XCH,3ION,3IOP,3NAX,3NAY,3NUN,3NUS,3NUU,3NUY,3QCQ,3QCS,3QCX,3QCY,3QD0,3QD3,3QD4,3RWP,3RWQ,3SC1,5HKM,5HNG,5HO7,5HO8

> <UniProt (SwissProt) Recommended Name of Target Chain>
3-phosphoinositide-dependent protein kinase 1

> <UniProt (SwissProt) Entry Name of Target Chain>
PDPK1_HUMAN

> <UniProt (SwissProt) Primary ID of Target Chain>
O15530

> <UniProt (SwissProt) Secondary ID(s) of Target Chain>
H0Y4Z0 Q59EH6 Q6FI20 Q8IV52 Q9BRD5

> <UniProt (SwissProt) Alternative ID(s) of Target Chain>


> <UniProt (TrEMBL) Submitted Name of Target Chain>


> <UniProt (TrEMBL) Entry Name of Target Chain>


> <UniProt (TrEMBL) Primary ID of Target Chain>


> <UniProt (TrEMBL) Secondary ID(s) of Target Chain>


> <UniProt (TrEMBL) Alternative ID(s) of Target Chain>


$$$$

  Mrv0541 11231414432D          

 10 11  0  0  0  0            999 V2000
   -0.7127    0.6851    0.0000 N   0  0  0  0  0  0  0  0  0  0  0  0
   -1.1977    0.0176    0.0000 N   0  0  0  0  0  0  0  0  0  0  0  0
   -0.9677   -1.4344    0.0000 N   0  0  0  0  0  0  0  0  0  0  0  0
    0.0719   -0.3949    0.0000 C   0  0  0  0  0  0  0  0  0  0  0  0
    0.0719    0.4301    0.0000 C   0  0  0  0  0  0  0  0  0  0  0  0
   -0.7127   -0.6498    0.0000 C   0  0  0  0  0  0  0  0  0  0  0  0
    0.7863   -0.8074    0.0000 C   0  0  0  0  0  0  0  0  0  0  0  0
    0.7863    0.8426    0.0000 C   0  0  0  0  0  0  0  0  0  0  0  0
    1.5008   -0.3949    0.0000 C   0  0  0  0  0  0  0  0  0  0  0  0
    1.5008    0.4301    0.0000 C   0  0  0  0  0  0  0  0  0  0  0  0
  1  2  1  0  0  0  0
  1  5  2  0  0  0  0
  2  6  1  0  0  0  0
  3  6  1  0  0  0  0
  4  5  1  0  0  0  0
  4  6  2  0  0  0  0
  4  7  1  0  0  0  0
  5  8  1  0  0  0  0
  7  9  2  0  0  0  0
  8 10  2  0  0  0  0
  9 10  1  0  0  0  0
M  END
> <From>
www.bindingDB.org

> <BindingDB Reactant_set_id>
50628036

> <Ligand InChI>
InChI=1S/C7H7N3/c8-7-5-3-1-2-4-6(5)9-10-7/h1-4H,(H3,8,9,10)

> <Ligand InChI Key>
YDTDKKULPWTHRV-UHFFFAOYSA-N

> <BindingDB MonomerID>
50339013

> <BindingDB Ligand Name>
1H-indazol-3-amine::CHEMBL1331627

> <Target Name>
3-phosphoinositide-dependent protein kinase 1

> <Target Source Organism According to Curator or DataSource>
Homo sapiens

> <Ki (nM)>


> <IC50 (nM)>
 311000

> <Kd (nM)>


> <EC50 (nM)>


> <kon (M-1-s-1)>


> <koff (s-1)>


> <pH>


> <Temp C>


> <Curation/DataSource>
ChEMBL

> <Article DOI>
10.1021/ml100136n

> <BindingDB Entry DOI>
10.7270/Q22807WJ

> <PMID>
24900229

> <PubChem AID>


> <Patent Number>


> <Authors>
Medina, JR; Blackledge, CW; Heerding, DA; Campobasso, N; Ward, P; Briand, J; Wright, L; Axten, JM.

> <Date of publication>
12/28/2010

> <Date in BindingDB>
8/24/2011

> <Institution>
TBA

> <Link to Ligand in BindingDB>
http://www.bindingdb.org/bind/chemsearch/marvin/MolStructure.jsp?monomerid=50339013

> <Link to Ligand-Target Pair in BindingDB>
http://www.bindingdb.org/jsp/dbsearch/PrimarySearch_ki.jsp?energyterm=kJ/mole&tag=pol&polymerid=1744&target=3-phosphoinositide-dependent+protein+kinase+1&column=ki&startPg=0&Increment=50&submit=Search

> <Link to Ligand-Target Pair in BindingDB>
http://www.bindingdb.org/jsp/dbsearch/PrimarySearch_ki.jsp?energyterm=kJ/mole&tag=r21&monomerid=50339013&enzyme=3-phosphoinositide-dependent+protein+kinase+1&column=ki&startPg=0&Increment=50&submit=Search

> <Ligand HET ID in PDB>


> <PDB ID(s) for Ligand-Target Complex>


> <PubChem CID of Ligand>
13399

> <PubChem SID of Ligand>
125089115

> <ChEBI ID of Ligand>


> <ChEMBL ID of Ligand>
CHEMBL1331627

> <DrugBank ID of Ligand>


> <IUPHAR_GRAC ID of Ligand>


> <KEGG ID of Ligand>


> <ZINC ID of Ligand>
ZINC13682782

> <Number of Protein Chains in Target (bigger than 1 implies a multichain complex)>
1

> <BindingDB Target Chain Sequence>
MARTTSQLYDAVPIQSSVVLCSCPSPSMVRTQTESSTPPGIPGGSRQGPAMDGTAAEPRPGAGSLQHAQPPPQPRKKRPEDFKFGKILGEGSFSTVVLARELATSREYAIKILEKRHIIKENKVPYVTRERDVMSRLDHPFFVKLYFTFQDDEKLYFGLSYAKNGELLKYIRKIGSFDETCTRFYTAEIVSALEYLHGKGIIHRDLKPENILLNEDMHIQITDFGTAKVLSPESKQARANSFVGTAQYVSPELLTEKSACKSSDLWALGCIIYQLVAGLPPFRAGNEYLIFQKIIKLEYDFPEKFFPKARDLVEKLLVLDATKRLGCEEMEGYGPLKAHPFFESVTWENLHQQTPPKLTAYLPAMSEDDEDCYGNYDNLLSQFGCMQVSSSSSSHSLSASDTGLPQRSGSNIEQYIHDLDSNSFELDLQFSEDEKRLLLEKQAGGNPWHQFVENNLILKMGPVDKRKGLFARRRQLLLTEGPHLYYVDPVNKVLKGEIPWSQELRPEAKNFKTFFVHTPNRTYYLMDPSGNAHKWCRKIQEVWRQRYQSHPDAAVQ

> <PDB ID(s) of Target Chain>
1H1W,1OKY,1OKZ,1UU3,1UU7,1UU8,1UU9,1UVR,1W1D,1W1G,1W1H,1Z5M,2PE0,2PE1,2PE2,2R7B,2XCH,3ION,3IOP,3NAX,3NAY,3NUN,3NUS,3NUU,3NUY,3QCQ,3QCS,3QCX,3QCY,3QD0,3QD3,3QD4,3RWP,3RWQ,3SC1,5HKM,5HNG,5HO7,5HO8

> <UniProt (SwissProt) Recommended Name of Target Chain>
3-phosphoinositide-dependent protein kinase 1

> <UniProt (SwissProt) Entry Name of Target Chain>
PDPK1_HUMAN

> <UniProt (SwissProt) Primary ID of Target Chain>
O15530

> <UniProt (SwissProt) Secondary ID(s) of Target Chain>
H0Y4Z0 Q59EH6 Q6FI20 Q8IV52 Q9BRD5

> <UniProt (SwissProt) Alternative ID(s) of Target Chain>


> <UniProt (TrEMBL) Submitted Name of Target Chain>


> <UniProt (TrEMBL) Entry Name of Target Chain>


> <UniProt (TrEMBL) Primary ID of Target Chain>


> <UniProt (TrEMBL) Secondary ID(s) of Target Chain>


> <UniProt (TrEMBL) Alternative ID(s) of Target Chain>


$$$$

  Mrv0541 11231414432D          

 11 12  0  0  0  0            999 V2000
   10.2041   -7.8375    0.0000 C   0  0  0  0  0  0  0  0  0  0  0  0
   11.0291   -7.8375    0.0000 C   0  0  0  0  0  0  0  0  0  0  0  0
   11.2859   -7.0534    0.0000 C   0  0  0  0  0  0  0  0  0  0  0  0
   10.6166   -6.5667    0.0000 O   0  0  0  0  0  0  0  0  0  0  0  0
    9.9516   -7.0534    0.0000 C   0  0  0  0  0  0  0  0  0  0  0  0
   12.0732   -6.7962    0.0000 C   0  0  0  0  0  0  0  0  0  0  0  0
   12.7400   -7.2820    0.0000 N   0  0  0  0  0  0  0  0  0  0  0  0
   13.4081   -6.7980    0.0000 N   0  0  0  0  0  0  0  0  0  0  0  0
   13.1542   -6.0130    0.0000 C   0  0  0  0  0  0  0  0  0  0  0  0
   12.3293   -6.0120    0.0000 C   0  0  0  0  0  0  0  0  0  0  0  0
   13.5625   -5.2958    0.0000 N   0  0  0  0  0  0  0  0  0  0  0  0
  6  7  2  0  0  0  0
  1  2  1  0  0  0  0
  2  3  2  0  0  0  0
  3  4  1  0  0  0  0
  4  5  1  0  0  0  0
  7  8  1  0  0  0  0
  8  9  1  0  0  0  0
  9 10  2  0  0  0  0
 10  6  1  0  0  0  0
  3  6  1  0  0  0  0
  5  1  2  0  0  0  0
  9 11  1  0  0  0  0
M  END
> <From>
www.bindingDB.org

> <BindingDB Reactant_set_id>
50628042

> <Ligand InChI>
InChI=1S/C7H7N3O/c8-7-4-5(9-10-7)6-2-1-3-11-6/h1-4H,(H3,8,9,10)

> <Ligand InChI Key>
XJNZHICOWTVWOX-UHFFFAOYSA-N

> <BindingDB MonomerID>
50339019

> <BindingDB Ligand Name>
5-(furan-2-yl)-1H-pyrazol-3-amine::CHEMBL1688214

> <Target Name>
3-phosphoinositide-dependent protein kinase 1

> <Target Source Organism According to Curator or DataSource>
Homo sapiens

> <Ki (nM)>


> <IC50 (nM)>
 313000

> <Kd (nM)>


> <EC50 (nM)>


> <kon (M-1-s-1)>


> <koff (s-1)>


> <pH>


> <Temp C>


> <Curation/DataSource>
ChEMBL

> <Article DOI>
10.1021/ml100136n

> <BindingDB Entry DOI>
10.7270/Q22807WJ

> <PMID>
24900229

> <PubChem AID>


> <Patent Number>


> <Authors>
Medina, JR; Blackledge, CW; Heerding, DA; Campobasso, N; Ward, P; Briand, J; Wright, L; Axten, JM.

> <Date of publication>
12/28/2010

> <Date in BindingDB>
8/24/2011

> <Institution>
TBA

> <Link to Ligand in BindingDB>
http://www.bindingdb.org/bind/chemsearch/marvin/MolStructure.jsp?monomerid=50339019

> <Link to Ligand-Target Pair in BindingDB>
http://www.bindingdb.org/jsp/dbsearch/PrimarySearch_ki.jsp?energyterm=kJ/mole&tag=pol&polymerid=1744&target=3-phosphoinositide-dependent+protein+kinase+1&column=ki&startPg=0&Increment=50&submit=Search

> <Link to Ligand-Target Pair in BindingDB>
http://www.bindingdb.org/jsp/dbsearch/PrimarySearch_ki.jsp?energyterm=kJ/mole&tag=r21&monomerid=50339019&enzyme=3-phosphoinositide-dependent+protein+kinase+1&column=ki&startPg=0&Increment=50&submit=Search

> <Ligand HET ID in PDB>


> <PDB ID(s) for Ligand-Target Complex>


> <PubChem CID of Ligand>
523183

> <PubChem SID of Ligand>
125089121

> <ChEBI ID of Ligand>


> <ChEMBL ID of Ligand>
CHEMBL1688214

> <DrugBank ID of Ligand>


> <IUPHAR_GRAC ID of Ligand>


> <KEGG ID of Ligand>


> <ZINC ID of Ligand>
ZINC04695246

> <Number of Protein Chains in Target (bigger than 1 implies a multichain complex)>
1

> <BindingDB Target Chain Sequence>
MARTTSQLYDAVPIQSSVVLCSCPSPSMVRTQTESSTPPGIPGGSRQGPAMDGTAAEPRPGAGSLQHAQPPPQPRKKRPEDFKFGKILGEGSFSTVVLARELATSREYAIKILEKRHIIKENKVPYVTRERDVMSRLDHPFFVKLYFTFQDDEKLYFGLSYAKNGELLKYIRKIGSFDETCTRFYTAEIVSALEYLHGKGIIHRDLKPENILLNEDMHIQITDFGTAKVLSPESKQARANSFVGTAQYVSPELLTEKSACKSSDLWALGCIIYQLVAGLPPFRAGNEYLIFQKIIKLEYDFPEKFFPKARDLVEKLLVLDATKRLGCEEMEGYGPLKAHPFFESVTWENLHQQTPPKLTAYLPAMSEDDEDCYGNYDNLLSQFGCMQVSSSSSSHSLSASDTGLPQRSGSNIEQYIHDLDSNSFELDLQFSEDEKRLLLEKQAGGNPWHQFVENNLILKMGPVDKRKGLFARRRQLLLTEGPHLYYVDPVNKVLKGEIPWSQELRPEAKNFKTFFVHTPNRTYYLMDPSGNAHKWCRKIQEVWRQRYQSHPDAAVQ

> <PDB ID(s) of Target Chain>
1H1W,1OKY,1OKZ,1UU3,1UU7,1UU8,1UU9,1UVR,1W1D,1W1G,1W1H,1Z5M,2PE0,2PE1,2PE2,2R7B,2XCH,3ION,3IOP,3NAX,3NAY,3NUN,3NUS,3NUU,3NUY,3QCQ,3QCS,3QCX,3QCY,3QD0,3QD3,3QD4,3RWP,3RWQ,3SC1,5HKM,5HNG,5HO7,5HO8

> <UniProt (SwissProt) Recommended Name of Target Chain>
3-phosphoinositide-dependent protein kinase 1

> <UniProt (SwissProt) Entry Name of Target Chain>
PDPK1_HUMAN

> <UniProt (SwissProt) Primary ID of Target Chain>
O15530

> <UniProt (SwissProt) Secondary ID(s) of Target Chain>
H0Y4Z0 Q59EH6 Q6FI20 Q8IV52 Q9BRD5

> <UniProt (SwissProt) Alternative ID(s) of Target Chain>


> <UniProt (TrEMBL) Submitted Name of Target Chain>


> <UniProt (TrEMBL) Entry Name of Target Chain>


> <UniProt (TrEMBL) Primary ID of Target Chain>


> <UniProt (TrEMBL) Secondary ID(s) of Target Chain>


> <UniProt (TrEMBL) Alternative ID(s) of Target Chain>


$$$$

  Mrv0541 11231414432D          

 11 12  0  0  0  0            999 V2000
    0.3912   -0.5617    0.0000 N   0  0  0  0  0  0  0  0  0  0  0  0
   -0.3578   -0.8905    0.0000 C   0  0  0  0  0  0  0  0  0  0  0  0
    0.9487   -1.1651    0.0000 N   0  0  0  0  0  0  0  0  0  0  0  0
   -0.2704   -1.7143    0.0000 C   0  0  0  0  0  0  0  0  0  0  0  0
    0.5368   -1.8849    0.0000 C   0  0  0  0  0  0  0  0  0  0  0  0
   -2.4965    0.3453    0.0000 N   0  0  0  0  0  0  0  0  0  0  0  0
   -1.0693   -0.4785    0.0000 C   0  0  0  0  0  0  0  0  0  0  0  0
   -1.7850    0.7572    0.0000 C   0  0  0  0  0  0  0  0  0  0  0  0
   -2.4965   -0.4785    0.0000 C   0  0  0  0  0  0  0  0  0  0  0  0
   -1.7850   -0.8905    0.0000 C   0  0  0  0  0  0  0  0  0  0  0  0
   -1.0693    0.3453    0.0000 C   0  0  0  0  0  0  0  0  0  0  0  0
  2  1  2  0  0  0  0
  3  1  1  0  0  0  0
  4  2  1  0  0  0  0
  5  3  1  0  0  0  0
  6  8  2  0  0  0  0
  7  2  1  0  0  0  0
  8 11  1  0  0  0  0
  9 10  2  0  0  0  0
 10  7  1  0  0  0  0
 11  7  2  0  0  0  0
  4  5  2  0  0  0  0
  6  9  1  0  0  0  0
M  END
> <From>
www.bindingDB.org

> <BindingDB Reactant_set_id>
50628043

> <Ligand InChI>
InChI=1S/C8H7N3/c1-4-9-5-2-7(1)8-3-6-10-11-8/h1-6H,(H,10,11)

> <Ligand InChI Key>
FEBRHATXLQPYLJ-UHFFFAOYSA-N

> <BindingDB MonomerID>
50339020

> <BindingDB Ligand Name>
4-(1H-Pyrazol-3-yl)-pyridine::4-(1H-pyrazol-3-yl)pyridine::CHEMBL116211

> <Target Name>
3-phosphoinositide-dependent protein kinase 1

> <Target Source Organism According to Curator or DataSource>
Homo sapiens

> <Ki (nM)>


> <IC50 (nM)>
 326000

> <Kd (nM)>


> <EC50 (nM)>


> <kon (M-1-s-1)>


> <koff (s-1)>


> <pH>


> <Temp C>


> <Curation/DataSource>
ChEMBL

> <Article DOI>
10.1021/ml100136n

> <BindingDB Entry DOI>
10.7270/Q22807WJ

> <PMID>
24900229

> <PubChem AID>


> <Patent Number>


> <Authors>
Medina, JR; Blackledge, CW; Heerding, DA; Campobasso, N; Ward, P; Briand, J; Wright, L; Axten, JM.

> <Date of publication>
12/28/2010

> <Date in BindingDB>
8/24/2011

> <Institution>
TBA

> <Link to Ligand in BindingDB>
http://www.bindingdb.org/bind/chemsearch/marvin/MolStructure.jsp?monomerid=50339020

> <Link to Ligand-Target Pair in BindingDB>
http://www.bindingdb.org/jsp/dbsearch/PrimarySearch_ki.jsp?energyterm=kJ/mole&tag=pol&polymerid=1744&target=3-phosphoinositide-dependent+protein+kinase+1&column=ki&startPg=0&Increment=50&submit=Search

> <Link to Ligand-Target Pair in BindingDB>
http://www.bindingdb.org/jsp/dbsearch/PrimarySearch_ki.jsp?energyterm=kJ/mole&tag=r21&monomerid=50339020&enzyme=3-phosphoinositide-dependent+protein+kinase+1&column=ki&startPg=0&Increment=50&submit=Search

> <Ligand HET ID in PDB>


> <PDB ID(s) for Ligand-Target Complex>


> <PubChem CID of Ligand>
16412755

> <PubChem SID of Ligand>
125089122

> <ChEBI ID of Ligand>


> <ChEMBL ID of Ligand>
CHEMBL116211

> <DrugBank ID of Ligand>


> <IUPHAR_GRAC ID of Ligand>


> <KEGG ID of Ligand>


> <ZINC ID of Ligand>
ZINC09238267

> <Number of Protein Chains in Target (bigger than 1 implies a multichain complex)>
1

> <BindingDB Target Chain Sequence>
MARTTSQLYDAVPIQSSVVLCSCPSPSMVRTQTESSTPPGIPGGSRQGPAMDGTAAEPRPGAGSLQHAQPPPQPRKKRPEDFKFGKILGEGSFSTVVLARELATSREYAIKILEKRHIIKENKVPYVTRERDVMSRLDHPFFVKLYFTFQDDEKLYFGLSYAKNGELLKYIRKIGSFDETCTRFYTAEIVSALEYLHGKGIIHRDLKPENILLNEDMHIQITDFGTAKVLSPESKQARANSFVGTAQYVSPELLTEKSACKSSDLWALGCIIYQLVAGLPPFRAGNEYLIFQKIIKLEYDFPEKFFPKARDLVEKLLVLDATKRLGCEEMEGYGPLKAHPFFESVTWENLHQQTPPKLTAYLPAMSEDDEDCYGNYDNLLSQFGCMQVSSSSSSHSLSASDTGLPQRSGSNIEQYIHDLDSNSFELDLQFSEDEKRLLLEKQAGGNPWHQFVENNLILKMGPVDKRKGLFARRRQLLLTEGPHLYYVDPVNKVLKGEIPWSQELRPEAKNFKTFFVHTPNRTYYLMDPSGNAHKWCRKIQEVWRQRYQSHPDAAVQ

> <PDB ID(s) of Target Chain>
1H1W,1OKY,1OKZ,1UU3,1UU7,1UU8,1UU9,1UVR,1W1D,1W1G,1W1H,1Z5M,2PE0,2PE1,2PE2,2R7B,2XCH,3ION,3IOP,3NAX,3NAY,3NUN,3NUS,3NUU,3NUY,3QCQ,3QCS,3QCX,3QCY,3QD0,3QD3,3QD4,3RWP,3RWQ,3SC1,5HKM,5HNG,5HO7,5HO8

> <UniProt (SwissProt) Recommended Name of Target Chain>
3-phosphoinositide-dependent protein kinase 1

> <UniProt (SwissProt) Entry Name of Target Chain>
PDPK1_HUMAN

> <UniProt (SwissProt) Primary ID of Target Chain>
O15530

> <UniProt (SwissProt) Secondary ID(s) of Target Chain>
H0Y4Z0 Q59EH6 Q6FI20 Q8IV52 Q9BRD5

> <UniProt (SwissProt) Alternative ID(s) of Target Chain>


> <UniProt (TrEMBL) Submitted Name of Target Chain>


> <UniProt (TrEMBL) Entry Name of Target Chain>


> <UniProt (TrEMBL) Primary ID of Target Chain>


> <UniProt (TrEMBL) Secondary ID(s) of Target Chain>


> <UniProt (TrEMBL) Alternative ID(s) of Target Chain>


$$$$

  Mrv0541 11231414432D          

 11 12  0  0  0  0            999 V2000
    3.5186   -2.7667    0.0000 C   0  0  0  0  0  0  0  0  0  0  0  0
    3.5186   -3.5934    0.0000 C   0  0  0  0  0  0  0  0  0  0  0  0
    2.7335   -2.5091    0.0000 N   0  0  0  0  0  0  0  0  0  0  0  0
    2.7335   -3.8426    0.0000 N   0  0  0  0  0  0  0  0  0  0  0  0
    4.2290   -2.3471    0.0000 C   0  0  0  0  0  0  0  0  0  0  0  0
    4.2290   -3.9922    0.0000 N   0  0  0  0  0  0  0  0  0  0  0  0
    2.2474   -3.1821    0.0000 C   0  0  0  0  0  0  0  0  0  0  0  0
    4.9393   -2.7584    0.0000 N   0  0  0  0  0  0  0  0  0  0  0  0
    4.9393   -3.5892    0.0000 C   0  0  0  0  0  0  0  0  0  0  0  0
    4.2248   -1.5246    0.0000 O   0  0  0  0  0  0  0  0  0  0  0  0
    4.9351   -1.1133    0.0000 C   0  0  0  0  0  0  0  0  0  0  0  0
  2  1  1  0  0  0  0
  3  1  1  0  0  0  0
  4  2  1  0  0  0  0
  5  1  2  0  0  0  0
  6  2  2  0  0  0  0
  7  3  1  0  0  0  0
  8  5  1  0  0  0  0
  9  8  2  0  0  0  0
 10  5  1  0  0  0  0
 11 10  1  0  0  0  0
  4  7  2  0  0  0  0
  9  6  1  0  0  0  0
M  END
> <From>
www.bindingDB.org

> <BindingDB Reactant_set_id>
50628044

> <Ligand InChI>
InChI=1S/C6H6N4O/c1-11-6-4-5(8-2-7-4)9-3-10-6/h2-3H,1H3,(H,7,8,9,10)

> <Ligand InChI Key>
GOILPRCCOREWQE-UHFFFAOYSA-N

> <BindingDB MonomerID>
50339021

> <BindingDB Ligand Name>
6-methoxy-9H-purine::CHEMBL305107

> <Target Name>
3-phosphoinositide-dependent protein kinase 1

> <Target Source Organism According to Curator or DataSource>
Homo sapiens

> <Ki (nM)>


> <IC50 (nM)>
 340000

> <Kd (nM)>


> <EC50 (nM)>


> <kon (M-1-s-1)>


> <koff (s-1)>


> <pH>


> <Temp C>


> <Curation/DataSource>
ChEMBL

> <Article DOI>
10.1021/ml100136n

> <BindingDB Entry DOI>
10.7270/Q22807WJ

> <PMID>
24900229

> <PubChem AID>


> <Patent Number>


> <Authors>
Medina, JR; Blackledge, CW; Heerding, DA; Campobasso, N; Ward, P; Briand, J; Wright, L; Axten, JM.

> <Date of publication>
12/28/2010

> <Date in BindingDB>
8/24/2011

> <Institution>
TBA

> <Link to Ligand in BindingDB>
http://www.bindingdb.org/bind/chemsearch/marvin/MolStructure.jsp?monomerid=50339021

> <Link to Ligand-Target Pair in BindingDB>
http://www.bindingdb.org/jsp/dbsearch/PrimarySearch_ki.jsp?energyterm=kJ/mole&tag=pol&polymerid=1744&target=3-phosphoinositide-dependent+protein+kinase+1&column=ki&startPg=0&Increment=50&submit=Search

> <Link to Ligand-Target Pair in BindingDB>
http://www.bindingdb.org/jsp/dbsearch/PrimarySearch_ki.jsp?energyterm=kJ/mole&tag=r21&monomerid=50339021&enzyme=3-phosphoinositide-dependent+protein+kinase+1&column=ki&startPg=0&Increment=50&submit=Search

> <Ligand HET ID in PDB>


> <PDB ID(s) for Ligand-Target Complex>


> <PubChem CID of Ligand>
70632

> <PubChem SID of Ligand>
125089123

> <ChEBI ID of Ligand>


> <ChEMBL ID of Ligand>
CHEMBL305107

> <DrugBank ID of Ligand>


> <IUPHAR_GRAC ID of Ligand>


> <KEGG ID of Ligand>


> <ZINC ID of Ligand>
ZINC04692471

> <Number of Protein Chains in Target (bigger than 1 implies a multichain complex)>
1

> <BindingDB Target Chain Sequence>
MARTTSQLYDAVPIQSSVVLCSCPSPSMVRTQTESSTPPGIPGGSRQGPAMDGTAAEPRPGAGSLQHAQPPPQPRKKRPEDFKFGKILGEGSFSTVVLARELATSREYAIKILEKRHIIKENKVPYVTRERDVMSRLDHPFFVKLYFTFQDDEKLYFGLSYAKNGELLKYIRKIGSFDETCTRFYTAEIVSALEYLHGKGIIHRDLKPENILLNEDMHIQITDFGTAKVLSPESKQARANSFVGTAQYVSPELLTEKSACKSSDLWALGCIIYQLVAGLPPFRAGNEYLIFQKIIKLEYDFPEKFFPKARDLVEKLLVLDATKRLGCEEMEGYGPLKAHPFFESVTWENLHQQTPPKLTAYLPAMSEDDEDCYGNYDNLLSQFGCMQVSSSSSSHSLSASDTGLPQRSGSNIEQYIHDLDSNSFELDLQFSEDEKRLLLEKQAGGNPWHQFVENNLILKMGPVDKRKGLFARRRQLLLTEGPHLYYVDPVNKVLKGEIPWSQELRPEAKNFKTFFVHTPNRTYYLMDPSGNAHKWCRKIQEVWRQRYQSHPDAAVQ

> <PDB ID(s) of Target Chain>
1H1W,1OKY,1OKZ,1UU3,1UU7,1UU8,1UU9,1UVR,1W1D,1W1G,1W1H,1Z5M,2PE0,2PE1,2PE2,2R7B,2XCH,3ION,3IOP,3NAX,3NAY,3NUN,3NUS,3NUU,3NUY,3QCQ,3QCS,3QCX,3QCY,3QD0,3QD3,3QD4,3RWP,3RWQ,3SC1,5HKM,5HNG,5HO7,5HO8

> <UniProt (SwissProt) Recommended Name of Target Chain>
3-phosphoinositide-dependent protein kinase 1

> <UniProt (SwissProt) Entry Name of Target Chain>
PDPK1_HUMAN

> <UniProt (SwissProt) Primary ID of Target Chain>
O15530

> <UniProt (SwissProt) Secondary ID(s) of Target Chain>
H0Y4Z0 Q59EH6 Q6FI20 Q8IV52 Q9BRD5

> <UniProt (SwissProt) Alternative ID(s) of Target Chain>


> <UniProt (TrEMBL) Submitted Name of Target Chain>


> <UniProt (TrEMBL) Entry Name of Target Chain>


> <UniProt (TrEMBL) Primary ID of Target Chain>


> <UniProt (TrEMBL) Secondary ID(s) of Target Chain>


> <UniProt (TrEMBL) Alternative ID(s) of Target Chain>


$$$$

  Mrv0541 11231414432D          

  8  8  0  0  0  0            999 V2000
   -4.1542    0.2208    0.0000 C   0  0  0  0  0  0  0  0  0  0  0  0
   -3.3292    0.2208    0.0000 C   0  0  0  0  0  0  0  0  0  0  0  0
   -3.0724    1.0049    0.0000 N   0  0  0  0  0  0  0  0  0  0  0  0
   -3.7417    1.4917    0.0000 N   0  0  0  0  0  0  0  0  0  0  0  0
   -4.4067    1.0049    0.0000 C   0  0  0  0  0  0  0  0  0  0  0  0
   -2.8451   -0.4472    0.0000 C   0  0  0  0  0  0  0  0  0  0  0  0
   -2.0245   -0.3619    0.0000 O   0  0  0  0  0  0  0  0  0  0  0  0
   -5.1915    1.2595    0.0000 O   0  0  0  0  0  0  0  0  0  0  0  0
  3  4  1  0  0  0  0
  4  5  1  0  0  0  0
  5  1  1  0  0  0  0
  1  2  2  0  0  0  0
  2  6  1  0  0  0  0
  6  7  1  0  0  0  0
  2  3  1  0  0  0  0
  5  8  2  0  0  0  0
M  END
> <From>
www.bindingDB.org

> <BindingDB Reactant_set_id>
50628029

> <Ligand InChI>
InChI=1S/C4H6N2O2/c7-2-3-1-4(8)6-5-3/h1,7H,2H2,(H2,5,6,8)

> <Ligand InChI Key>
UAVGIEIWZYNZML-UHFFFAOYSA-N

> <BindingDB MonomerID>
50339007

> <BindingDB Ligand Name>
3-(hydroxymethyl)-1H-pyrazol-5-ol::CHEMBL1688204

> <Target Name>
3-phosphoinositide-dependent protein kinase 1

> <Target Source Organism According to Curator or DataSource>
Homo sapiens

> <Ki (nM)>


> <IC50 (nM)>
 344000

> <Kd (nM)>


> <EC50 (nM)>


> <kon (M-1-s-1)>


> <koff (s-1)>


> <pH>


> <Temp C>


> <Curation/DataSource>
ChEMBL

> <Article DOI>
10.1021/ml100136n

> <BindingDB Entry DOI>
10.7270/Q22807WJ

> <PMID>
24900229

> <PubChem AID>


> <Patent Number>


> <Authors>
Medina, JR; Blackledge, CW; Heerding, DA; Campobasso, N; Ward, P; Briand, J; Wright, L; Axten, JM.

> <Date of publication>
12/28/2010

> <Date in BindingDB>
8/24/2011

> <Institution>
TBA

> <Link to Ligand in BindingDB>
http://www.bindingdb.org/bind/chemsearch/marvin/MolStructure.jsp?monomerid=50339007

> <Link to Ligand-Target Pair in BindingDB>
http://www.bindingdb.org/jsp/dbsearch/PrimarySearch_ki.jsp?energyterm=kJ/mole&tag=pol&polymerid=1744&target=3-phosphoinositide-dependent+protein+kinase+1&column=ki&startPg=0&Increment=50&submit=Search

> <Link to Ligand-Target Pair in BindingDB>
http://www.bindingdb.org/jsp/dbsearch/PrimarySearch_ki.jsp?energyterm=kJ/mole&tag=r21&monomerid=50339007&enzyme=3-phosphoinositide-dependent+protein+kinase+1&column=ki&startPg=0&Increment=50&submit=Search

> <Ligand HET ID in PDB>


> <PDB ID(s) for Ligand-Target Complex>


> <PubChem CID of Ligand>
12508473

> <PubChem SID of Ligand>
125089109

> <ChEBI ID of Ligand>


> <ChEMBL ID of Ligand>
CHEMBL1688204

> <DrugBank ID of Ligand>


> <IUPHAR_GRAC ID of Ligand>


> <KEGG ID of Ligand>


> <ZINC ID of Ligand>
ZINC38538098

> <Number of Protein Chains in Target (bigger than 1 implies a multichain complex)>
1

> <BindingDB Target Chain Sequence>
MARTTSQLYDAVPIQSSVVLCSCPSPSMVRTQTESSTPPGIPGGSRQGPAMDGTAAEPRPGAGSLQHAQPPPQPRKKRPEDFKFGKILGEGSFSTVVLARELATSREYAIKILEKRHIIKENKVPYVTRERDVMSRLDHPFFVKLYFTFQDDEKLYFGLSYAKNGELLKYIRKIGSFDETCTRFYTAEIVSALEYLHGKGIIHRDLKPENILLNEDMHIQITDFGTAKVLSPESKQARANSFVGTAQYVSPELLTEKSACKSSDLWALGCIIYQLVAGLPPFRAGNEYLIFQKIIKLEYDFPEKFFPKARDLVEKLLVLDATKRLGCEEMEGYGPLKAHPFFESVTWENLHQQTPPKLTAYLPAMSEDDEDCYGNYDNLLSQFGCMQVSSSSSSHSLSASDTGLPQRSGSNIEQYIHDLDSNSFELDLQFSEDEKRLLLEKQAGGNPWHQFVENNLILKMGPVDKRKGLFARRRQLLLTEGPHLYYVDPVNKVLKGEIPWSQELRPEAKNFKTFFVHTPNRTYYLMDPSGNAHKWCRKIQEVWRQRYQSHPDAAVQ

> <PDB ID(s) of Target Chain>
1H1W,1OKY,1OKZ,1UU3,1UU7,1UU8,1UU9,1UVR,1W1D,1W1G,1W1H,1Z5M,2PE0,2PE1,2PE2,2R7B,2XCH,3ION,3IOP,3NAX,3NAY,3NUN,3NUS,3NUU,3NUY,3QCQ,3QCS,3QCX,3QCY,3QD0,3QD3,3QD4,3RWP,3RWQ,3SC1,5HKM,5HNG,5HO7,5HO8

> <UniProt (SwissProt) Recommended Name of Target Chain>
3-phosphoinositide-dependent protein kinase 1

> <UniProt (SwissProt) Entry Name of Target Chain>
PDPK1_HUMAN

> <UniProt (SwissProt) Primary ID of Target Chain>
O15530

> <UniProt (SwissProt) Secondary ID(s) of Target Chain>
H0Y4Z0 Q59EH6 Q6FI20 Q8IV52 Q9BRD5

> <UniProt (SwissProt) Alternative ID(s) of Target Chain>


> <UniProt (TrEMBL) Submitted Name of Target Chain>


> <UniProt (TrEMBL) Entry Name of Target Chain>


> <UniProt (TrEMBL) Primary ID of Target Chain>


> <UniProt (TrEMBL) Secondary ID(s) of Target Chain>


> <UniProt (TrEMBL) Alternative ID(s) of Target Chain>


$$$$
4-HQN
  Mrv0541 11191400042D          

 11 12  0  0  0  0            999 V2000
    5.7534   -8.2744    0.0000 N   0  0  0  0  0  0  0  0  0  0  0  0
    5.0240   -8.6824    0.0000 C   0  0  0  0  0  0  0  0  0  0  0  0
    5.0240   -9.5107    0.0000 N   0  0  0  0  0  0  0  0  0  0  0  0
    5.7534   -9.9187    0.0000 C   0  0  0  0  0  0  0  0  0  0  0  0
    7.1628   -9.9187    0.0000 C   0  0  0  0  0  0  0  0  0  0  0  0
    7.8798   -9.5107    0.0000 C   0  0  0  0  0  0  0  0  0  0  0  0
    7.8798   -8.6824    0.0000 C   0  0  0  0  0  0  0  0  0  0  0  0
    7.1628   -8.2744    0.0000 C   0  0  0  0  0  0  0  0  0  0  0  0
    6.4705   -9.5107    0.0000 C   0  0  0  0  0  0  0  0  0  0  0  0
    6.4705   -8.6824    0.0000 C   0  0  0  0  0  0  0  0  0  0  0  0
    5.7534  -10.7470    0.0000 O   0  0  0  0  0  0  0  0  0  0  0  0
 10  1  1  0  0  0  0
  2  1  2  0  0  0  0
  2  3  1  0  0  0  0
  4  3  1  0  0  0  0
 10  9  1  0  0  0  0
  4  9  1  0  0  0  0
  5  9  2  0  0  0  0
  8 10  2  0  0  0  0
 11  4  2  0  0  0  0
  6  5  1  0  0  0  0
  7  8  1  0  0  0  0
  7  6  2  0  0  0  0
M  END
> <From>
www.bindingDB.org

> <BindingDB Reactant_set_id>
50628045

> <Ligand InChI>
InChI=1S/C8H6N2O/c11-8-6-3-1-2-4-7(6)9-5-10-8/h1-5H,(H,9,10,11)

> <Ligand InChI Key>
QMNUDYFKZYBWQX-UHFFFAOYSA-N

> <BindingDB MonomerID>
27504

> <BindingDB Ligand Name>
4-HQN::4-hydroxyquinazoline::CHEMBL266540::quinazolin-4-ol

> <Target Name>
3-phosphoinositide-dependent protein kinase 1

> <Target Source Organism According to Curator or DataSource>
Homo sapiens

> <Ki (nM)>


> <IC50 (nM)>
 345000

> <Kd (nM)>


> <EC50 (nM)>


> <kon (M-1-s-1)>


> <koff (s-1)>


> <pH>


> <Temp C>


> <Curation/DataSource>
ChEMBL

> <Article DOI>
10.1021/ml100136n

> <BindingDB Entry DOI>
10.7270/Q22807WJ

> <PMID>
24900229

> <PubChem AID>


> <Patent Number>


> <Authors>
Medina, JR; Blackledge, CW; Heerding, DA; Campobasso, N; Ward, P; Briand, J; Wright, L; Axten, JM.

> <Date of publication>
12/28/2010

> <Date in BindingDB>
8/24/2011

> <Institution>
TBA

> <Link to Ligand in BindingDB>
http://www.bindingdb.org/bind/chemsearch/marvin/MolStructure.jsp?monomerid=27504

> <Link to Ligand-Target Pair in BindingDB>
http://www.bindingdb.org/jsp/dbsearch/PrimarySearch_ki.jsp?energyterm=kJ/mole&tag=pol&polymerid=1744&target=3-phosphoinositide-dependent+protein+kinase+1&column=ki&startPg=0&Increment=50&submit=Search

> <Link to Ligand-Target Pair in BindingDB>
http://www.bindingdb.org/jsp/dbsearch/PrimarySearch_ki.jsp?energyterm=kJ/mole&tag=r21&monomerid=27504&enzyme=3-phosphoinositide-dependent+protein+kinase+1&column=ki&startPg=0&Increment=50&submit=Search

> <Ligand HET ID in PDB>
WQG

> <PDB ID(s) for Ligand-Target Complex>
7OJO,5S1Q

> <PubChem CID of Ligand>
63112

> <PubChem SID of Ligand>
57299213

> <ChEBI ID of Ligand>


> <ChEMBL ID of Ligand>
CHEMBL266540

> <DrugBank ID of Ligand>


> <IUPHAR_GRAC ID of Ligand>


> <KEGG ID of Ligand>


> <ZINC ID of Ligand>
ZINC17970819

> <Number of Protein Chains in Target (bigger than 1 implies a multichain complex)>
1

> <BindingDB Target Chain Sequence>
MARTTSQLYDAVPIQSSVVLCSCPSPSMVRTQTESSTPPGIPGGSRQGPAMDGTAAEPRPGAGSLQHAQPPPQPRKKRPEDFKFGKILGEGSFSTVVLARELATSREYAIKILEKRHIIKENKVPYVTRERDVMSRLDHPFFVKLYFTFQDDEKLYFGLSYAKNGELLKYIRKIGSFDETCTRFYTAEIVSALEYLHGKGIIHRDLKPENILLNEDMHIQITDFGTAKVLSPESKQARANSFVGTAQYVSPELLTEKSACKSSDLWALGCIIYQLVAGLPPFRAGNEYLIFQKIIKLEYDFPEKFFPKARDLVEKLLVLDATKRLGCEEMEGYGPLKAHPFFESVTWENLHQQTPPKLTAYLPAMSEDDEDCYGNYDNLLSQFGCMQVSSSSSSHSLSASDTGLPQRSGSNIEQYIHDLDSNSFELDLQFSEDEKRLLLEKQAGGNPWHQFVENNLILKMGPVDKRKGLFARRRQLLLTEGPHLYYVDPVNKVLKGEIPWSQELRPEAKNFKTFFVHTPNRTYYLMDPSGNAHKWCRKIQEVWRQRYQSHPDAAVQ

> <PDB ID(s) of Target Chain>
1H1W,1OKY,1OKZ,1UU3,1UU7,1UU8,1UU9,1UVR,1W1D,1W1G,1W1H,1Z5M,2PE0,2PE1,2PE2,2R7B,2XCH,3ION,3IOP,3NAX,3NAY,3NUN,3NUS,3NUU,3NUY,3QCQ,3QCS,3QCX,3QCY,3QD0,3QD3,3QD4,3RWP,3RWQ,3SC1,5HKM,5HNG,5HO7,5HO8

> <UniProt (SwissProt) Recommended Name of Target Chain>
3-phosphoinositide-dependent protein kinase 1

> <UniProt (SwissProt) Entry Name of Target Chain>
PDPK1_HUMAN

> <UniProt (SwissProt) Primary ID of Target Chain>
O15530

> <UniProt (SwissProt) Secondary ID(s) of Target Chain>
H0Y4Z0 Q59EH6 Q6FI20 Q8IV52 Q9BRD5

> <UniProt (SwissProt) Alternative ID(s) of Target Chain>


> <UniProt (TrEMBL) Submitted Name of Target Chain>


> <UniProt (TrEMBL) Entry Name of Target Chain>


> <UniProt (TrEMBL) Primary ID of Target Chain>


> <UniProt (TrEMBL) Secondary ID(s) of Target Chain>


> <UniProt (TrEMBL) Alternative ID(s) of Target Chain>


$$$$

  Mrv0541 11231404102D          

 11 12  0  0  0  0            999 V2000
    5.6553   -2.1474    0.0000 N   0  0  0  0  0  0  0  0  0  0  0  0
    4.9395   -1.7330    0.0000 C   0  0  0  0  0  0  0  0  0  0  0  0
    4.9395   -0.9042    0.0000 C   0  0  0  0  0  0  0  0  0  0  0  0
    5.6636   -0.4940    0.0000 C   0  0  0  0  0  0  0  0  0  0  0  0
    6.3836   -1.7246    0.0000 C   0  0  0  0  0  0  0  0  0  0  0  0
    6.3794   -0.9042    0.0000 C   0  0  0  0  0  0  0  0  0  0  0  0
    4.2237   -2.1391    0.0000 N   0  0  0  0  0  0  0  0  0  0  0  0
    5.6553    0.3265    0.0000 C   0  0  0  0  0  0  0  0  0  0  0  0
    7.0952   -0.4814    0.0000 C   0  0  0  0  0  0  0  0  0  0  0  0
    6.3711    0.7367    0.0000 C   0  0  0  0  0  0  0  0  0  0  0  0
    7.0826    0.3265    0.0000 C   0  0  0  0  0  0  0  0  0  0  0  0
  2  1  2  0  0  0  0
  3  2  1  0  0  0  0
  4  6  1  0  0  0  0
  5  1  1  0  0  0  0
  6  5  2  0  0  0  0
  7  2  1  0  0  0  0
  8  4  1  0  0  0  0
  9  6  1  0  0  0  0
 10 11  1  0  0  0  0
 11  9  2  0  0  0  0
  4  3  2  0  0  0  0
 10  8  2  0  0  0  0
M  END
> <From>
www.bindingDB.org

> <BindingDB Reactant_set_id>
50628046

> <Ligand InChI>
InChI=1S/C9H8N2/c10-9-5-7-3-1-2-4-8(7)6-11-9/h1-6H,(H2,10,11)

> <Ligand InChI Key>
VYCKDIRCVDCQAE-UHFFFAOYSA-N

> <BindingDB MonomerID>
50091818

> <BindingDB Ligand Name>
CHEMBL61743::Isoquinolin-3-ylamine::uPa_46

> <Target Name>
3-phosphoinositide-dependent protein kinase 1

> <Target Source Organism According to Curator or DataSource>
Homo sapiens

> <Ki (nM)>


> <IC50 (nM)>
 376000

> <Kd (nM)>


> <EC50 (nM)>


> <kon (M-1-s-1)>


> <koff (s-1)>


> <pH>


> <Temp C>


> <Curation/DataSource>
ChEMBL

> <Article DOI>
10.1021/ml100136n

> <BindingDB Entry DOI>
10.7270/Q22807WJ

> <PMID>
24900229

> <PubChem AID>


> <Patent Number>


> <Authors>
Medina, JR; Blackledge, CW; Heerding, DA; Campobasso, N; Ward, P; Briand, J; Wright, L; Axten, JM.

> <Date of publication>
12/28/2010

> <Date in BindingDB>
8/24/2011

> <Institution>
TBA

> <Link to Ligand in BindingDB>
http://www.bindingdb.org/bind/chemsearch/marvin/MolStructure.jsp?monomerid=50091818

> <Link to Ligand-Target Pair in BindingDB>
http://www.bindingdb.org/jsp/dbsearch/PrimarySearch_ki.jsp?energyterm=kJ/mole&tag=pol&polymerid=1744&target=3-phosphoinositide-dependent+protein+kinase+1&column=ki&startPg=0&Increment=50&submit=Search

> <Link to Ligand-Target Pair in BindingDB>
http://www.bindingdb.org/jsp/dbsearch/PrimarySearch_ki.jsp?energyterm=kJ/mole&tag=r21&monomerid=50091818&enzyme=3-phosphoinositide-dependent+protein+kinase+1&column=ki&startPg=0&Increment=50&submit=Search

> <Ligand HET ID in PDB>
WLX

> <PDB ID(s) for Ligand-Target Complex>


> <PubChem CID of Ligand>
311869

> <PubChem SID of Ligand>
103990044

> <ChEBI ID of Ligand>


> <ChEMBL ID of Ligand>
CHEMBL61743

> <DrugBank ID of Ligand>


> <IUPHAR_GRAC ID of Ligand>


> <KEGG ID of Ligand>


> <ZINC ID of Ligand>
ZINC00157801

> <Number of Protein Chains in Target (bigger than 1 implies a multichain complex)>
1

> <BindingDB Target Chain Sequence>
MARTTSQLYDAVPIQSSVVLCSCPSPSMVRTQTESSTPPGIPGGSRQGPAMDGTAAEPRPGAGSLQHAQPPPQPRKKRPEDFKFGKILGEGSFSTVVLARELATSREYAIKILEKRHIIKENKVPYVTRERDVMSRLDHPFFVKLYFTFQDDEKLYFGLSYAKNGELLKYIRKIGSFDETCTRFYTAEIVSALEYLHGKGIIHRDLKPENILLNEDMHIQITDFGTAKVLSPESKQARANSFVGTAQYVSPELLTEKSACKSSDLWALGCIIYQLVAGLPPFRAGNEYLIFQKIIKLEYDFPEKFFPKARDLVEKLLVLDATKRLGCEEMEGYGPLKAHPFFESVTWENLHQQTPPKLTAYLPAMSEDDEDCYGNYDNLLSQFGCMQVSSSSSSHSLSASDTGLPQRSGSNIEQYIHDLDSNSFELDLQFSEDEKRLLLEKQAGGNPWHQFVENNLILKMGPVDKRKGLFARRRQLLLTEGPHLYYVDPVNKVLKGEIPWSQELRPEAKNFKTFFVHTPNRTYYLMDPSGNAHKWCRKIQEVWRQRYQSHPDAAVQ

> <PDB ID(s) of Target Chain>
1H1W,1OKY,1OKZ,1UU3,1UU7,1UU8,1UU9,1UVR,1W1D,1W1G,1W1H,1Z5M,2PE0,2PE1,2PE2,2R7B,2XCH,3ION,3IOP,3NAX,3NAY,3NUN,3NUS,3NUU,3NUY,3QCQ,3QCS,3QCX,3QCY,3QD0,3QD3,3QD4,3RWP,3RWQ,3SC1,5HKM,5HNG,5HO7,5HO8

> <UniProt (SwissProt) Recommended Name of Target Chain>
3-phosphoinositide-dependent protein kinase 1

> <UniProt (SwissProt) Entry Name of Target Chain>
PDPK1_HUMAN

> <UniProt (SwissProt) Primary ID of Target Chain>
O15530

> <UniProt (SwissProt) Secondary ID(s) of Target Chain>
H0Y4Z0 Q59EH6 Q6FI20 Q8IV52 Q9BRD5

> <UniProt (SwissProt) Alternative ID(s) of Target Chain>


> <UniProt (TrEMBL) Submitted Name of Target Chain>


> <UniProt (TrEMBL) Entry Name of Target Chain>


> <UniProt (TrEMBL) Primary ID of Target Chain>


> <UniProt (TrEMBL) Secondary ID(s) of Target Chain>


> <UniProt (TrEMBL) Alternative ID(s) of Target Chain>


$$$$
